5
Properties=species:S:1:pos:R:3 atomization_energy=-417.96 smiles=C.H.H.H.H pbc="F F F"
C        0.99825961      -0.00246000      -0.00436000
H        2.09020918      -0.00243000       0.00414000
H        0.63378975       1.02685959       0.00414000
H        0.62703977      -0.52772979       0.87810968
H        0.64135976      -0.50746979      -0.90539962
