20
Properties=species:S:1:pos:R:3 atomization_energy=-1906.49 smiles=C.C.C.N.C.C.C.H.H.H.H.H.H.H.H.H.H.H.H.H pbc="F F F"
C        0.95464964      -0.33608987      -0.49865981
C        2.43731909      -0.22318991      -0.81906966
C        3.22021869       0.35502986       0.36345987
N        4.64861800       0.43101983       0.04164998
C        4.95586815       1.64162931      -0.76822970
C        6.20458741       1.82899927       0.11363995
C        5.40075792       1.04625957       1.16838948
H        0.41311983      -0.75409972      -1.35309949
H        0.52669980       0.64608977      -0.27313988
H        0.78727971      -0.99041961       0.36285985
H        2.55996898       0.40979984      -1.70566934
H        2.82434881      -1.21726958      -1.07386960
H        3.09147878      -0.31195987       1.22519947
H        2.80169879       1.32884945       0.65127972
H        4.23845808       2.46870909      -0.69243974
H        5.15836801       1.44547948      -1.82501925
H        7.09509722       1.30476948      -0.25237989
H        6.46703765       2.85787884       0.37017986
H        5.98256769       0.34055986       1.76834931
H        4.81731810       1.68792932       1.84120933
