8
Properties=species:S:1:pos:R:3 atomization_energy=-902.44 smiles=C.C.C.C.N.H.H.H pbc="F F F"
C        0.99999962       0.00000000       0.00000000
C        2.44399905       0.00000000       0.00000000
C        3.63415853       0.00000000       0.00000000
C        5.17015794      -0.00000000      -0.00000000
N        6.33037756      -0.00001000      -0.00001000
H        0.59641975       1.01428958       0.06905997
H        0.61734974      -0.56947979       0.85288968
H        0.60364973      -0.46126983      -0.90938961
