17
Properties=species:S:1:pos:R:3 atomization_energy=-1660.33 smiles=C.N.C.C.C.C.N.H.H.H.H.H.H.H.H.H.H pbc="F F F"
C        1.17709958      -0.63064974       0.60142979
N        2.18662924      -0.39360985      -0.43676983
C        2.72659895      -1.67799933      -0.89225966
C        1.59534936       0.38252987      -1.54557941
C        2.64038897       0.94286962      -2.51881906
C        1.98954920       1.76410926      -3.54679868
N        1.46922940       2.40556900      -4.36286850
H        0.80621969       0.31929988       1.00230959
H        1.61339937      -1.17478948       1.44666947
H        0.32312989      -1.20453946       0.22352992
H        3.13284875      -2.24552916      -0.04703998
H        3.56005869      -1.53354939      -1.58636939
H        1.96599925      -2.29462904      -1.38466941
H        1.04842956       1.23788946      -1.12436953
H        0.85316964      -0.22011991      -2.08727923
H        3.19003887       0.13365994      -3.01069872
H        3.37218873       1.54975941      -1.97278923
