17
Properties=species:S:1:pos:R:3 atomization_energy=-1638.54 smiles=C.N.C.N.C.C.C.H.H.H.H.H.H.H.H.H.H pbc="F F F"
C        1.01603963       0.69706970      -0.14656994
N        2.16104916       0.72553973       0.75650967
C        3.28932870       0.91023965       0.16374994
N        4.51542798       0.97260963       0.79052967
C        5.66826792       0.40988983       0.06705997
C        5.51199766       1.88868924       0.22180992
C        6.38838751       2.65213903       1.15145957
H        0.19472993       0.15684995       0.33442988
H        1.23483953       0.18407992      -1.08989957
H        0.67211976       1.71408938      -0.35949985
H        3.34974866       1.04116961      -0.93396964
H        5.43915770      -0.05590998      -0.88109968
H        6.33830733      -0.12901995       0.72270971
H        5.18142807       2.47884903      -0.62349975
H        6.67614759       2.06104915       2.02722919
H        5.87291765       3.55147867       1.50272940
H        7.30194728       2.96316885       0.63547974
