20
Properties=species:S:1:pos:R:3 atomization_energy=-1909.24 smiles=C.N.C.C.C.C.C.H.H.H.H.H.H.H.H.H.H.H.H.H pbc="F F F"
C        1.09290963      -0.01843999       0.24017990
N        2.52767891       0.07293997       0.00470000
C        2.98386884       1.46223944       0.09113996
C        4.47818842       1.55687944      -0.23848991
C        4.97701804       2.96914884      -0.12327995
C        6.05703772       3.46564870      -1.05000959
C        4.65340825       3.98824843      -1.18570949
H        0.78067966      -1.06589959       0.18551993
H        0.52689980       0.54064981      -0.51227980
H        0.82964965       0.35306987       1.23573946
H        2.73947895      -0.29694989      -0.92172962
H        2.80851880       1.85219924       1.10121953
H        2.41925898       2.09085919      -0.60864974
H        4.65887829       1.16860951      -1.24877957
H        5.05377822       0.92770962       0.45181981
H        5.00630816       3.30646880       0.90758967
H        6.42700732       2.80490895      -1.82582923
H        6.80917714       4.13201845      -0.64276972
H        4.45748817       5.00539825      -0.86696963
H        4.07798827       3.67640863      -2.04966914
