19
Properties=species:S:1:pos:R:3 atomization_energy=-1811.94 smiles=C.C.C.C.C.N.N.H.H.H.H.H.H.H.H.H.H.H.H pbc="F F F"
C        0.96283962      -0.06694997       0.07827997
C        2.49468912      -0.00609000      -0.00869000
C        3.11743888      -0.69972972       1.21518948
C        2.95130877      -0.76145972      -1.26880950
C        2.92767896       1.47343942      -0.03219999
N        3.50025870       2.03298916      -1.13170960
N        2.74144891       2.26439900       0.97777965
H        0.50118981       0.45023984      -0.77065972
H        0.59001974       0.41180985       0.99040958
H        0.60579978      -1.10260962       0.07782997
H        2.75257898      -0.27684991       2.15723921
H        4.20835825      -0.59540979       1.21155957
H        2.88045895      -1.76964932       1.22783948
H        2.48239907      -0.35791987      -2.17283909
H        2.68504883      -1.82322934      -1.21239958
H        4.03756834      -0.69793974      -1.39942940
H        3.19044866       1.71025937      -2.03821923
H        3.52633865       3.04601879      -1.05717959
H        2.29879907       1.76905924       1.75643927
