15
Properties=species:S:1:pos:R:3 atomization_energy=-1503.66 smiles=C.C.C.C.N.N.C.H.H.H.H.H.H.H.H pbc="F F F"
C        0.87761965      -0.02893999      -0.06111998
C        2.35892910      -0.32602987       0.04197999
C        2.80252896      -1.75908926       0.00408000
C        1.97865921      -2.80583879      -0.12849995
N        3.14558870       0.70299974       0.15517994
N        4.49966837       0.39626984       0.24502991
C        5.19807789       1.47378940       0.36642987
H        0.69664970       1.04755958       0.02072999
H        0.33795987      -0.52954982       0.74797968
H        0.49755980      -0.37022985      -1.02839957
H        3.87142839      -1.92544923       0.09226996
H        0.90342968      -2.70875888      -0.22265991
H        2.38352913      -3.81351862      -0.14640995
H        6.29337773       1.40970950       0.44990982
H        4.75148790       2.48255905       0.39253985
