19
Properties=species:S:1:pos:R:3 atomization_energy=-1799.97 smiles=C.N.C.C.C.N.C.H.H.H.H.H.H.H.H.H.H.H.H pbc="F F F"
C        1.03464962       0.01820999       0.00653000
N        2.48599909       0.00786000       0.09414997
C        3.01236890       1.08819961       0.93006961
C        4.44961847       0.64776973       1.14485959
C        4.30883832      -0.85065964       1.39486940
N        5.50769793      -1.58999943       1.00370958
C        3.01684879      -1.24469950       0.64637976
H        0.68528974      -0.79475969      -0.63913974
H        0.68595975       0.95469960      -0.44196984
H        0.55716981      -0.09139996       0.98668959
H        2.48613913       1.15702952       1.89084919
H        2.96012876       2.05801915       0.42546983
H        5.04313792       0.85244967       0.24357990
H        4.92220817       1.16417958       1.98534927
H        4.14800843      -1.01077959       2.46876915
H        5.68668759      -1.42088942       0.01287000
H        5.33079807      -2.59018893       1.08307956
H        3.20475861      -1.95885928      -0.16344994
H        2.32680910      -1.71806928       1.35568942
