18
Properties=species:S:1:pos:R:3 atomization_energy=-1762.25 smiles=C.C.N.C.C.C.C.H.H.H.H.H.H.H.H.H.H.H pbc="F F F"
C        1.16905954      -0.59349977      -0.14271995
C        2.68055885      -0.45109981      -0.23464990
N        3.07425869       0.89566967       0.16778994
C        4.52282835       1.06474959       0.09909996
C        4.88202794       2.40988917       0.56635978
C        5.17336810       3.51031864       0.94918963
C        5.51890800       4.85518797       1.41068943
H        0.86584966      -1.59912941      -0.45129981
H        0.66303974       0.12623995      -0.79516966
H        0.81643967      -0.43498982       0.88209967
H        2.99346878      -0.64586974      -1.26671957
H        3.15088867      -1.20095951       0.41189984
H        2.76892879       1.07614953       1.12328956
H        4.87096826       0.93279964      -0.93101964
H        5.02798795       0.31858988       0.72498971
H        4.62132837       5.47080761       1.52242941
H        6.18482735       5.35188792       0.69873969
H        6.02626743       4.81583792       2.37923899
