19
Properties=species:S:1:pos:R:3 atomization_energy=-1781.92 smiles=C.N.C.C.C.C.N.H.H.H.H.H.H.H.H.H.H.H.H pbc="F F F"
C        1.82194926      -0.69355971      -0.69245974
N        1.76163931       0.60296976      -0.03240999
C        3.04925872       1.30449948      -0.05113998
C        3.23500884       2.45367898      -1.00494961
C        3.10247866       2.71863892       0.47310981
C        4.27678821       3.16010885       1.28244952
N        4.27078828       4.61276829       1.34209949
H        0.82751966      -1.14987959      -0.69612970
H        2.50451894      -1.37187950      -0.17010994
H        2.14694914      -0.59311976      -1.73269932
H        1.43840941       0.47588981       0.92670963
H        3.92093856       0.68473972       0.15019994
H        2.40196899       2.73277880      -1.64057936
H        4.20485841       2.56946900      -1.47284947
H        2.17375909       3.15066889       0.83073966
H        5.22068778       2.80992883       0.85042964
H        4.19845828       2.75244903       2.29518922
H        4.35149845       4.98644817       0.39783984
H        5.09423803       4.93151818       1.84870925
