15
Properties=species:S:1:pos:R:3 atomization_energy=-1515.35 smiles=C.C.N.C.C.C.N.H.H.H.H.H.H.H.H pbc="F F F"
C        2.42353902      -1.09496953       0.71389969
C        2.12804928       0.18024993       0.43066984
N        2.96186884       1.28566952       0.20855992
C        2.41230902       2.57410887       0.12703995
C        1.23874953       3.06559868       0.54759977
C        4.33482844       1.10972952       0.00038000
N        5.31265798       1.95031926       0.08608997
H        1.62949937      -1.82220929       0.85376968
H        3.44011857      -1.45210948       0.83166969
H        1.07189952       0.42877982       0.35235985
H        3.08212890       3.26569863      -0.38165986
H        0.51035980       2.46816911       1.08256960
H        0.99203958       4.10931848       0.37936986
H        4.59363804       0.07696997      -0.28629990
H        4.96526799       2.85652886       0.40687983
