11
Properties=species:S:1:pos:R:3 atomization_energy=-1188.12 smiles=O.C.C.C.C.N.H.H.H.H.H pbc="F F F"
O        0.97885962      -0.09329996      -0.00609000
C        2.29680918       0.03772999      -0.00004000
C        3.11970885       1.14144958       0.00375000
C        4.45731810       0.67103971       0.00987999
C        4.40896841      -0.70539973       0.00964000
N        3.09002889      -1.07787952       0.00358000
H        0.60405977       0.80554968      -0.00777000
H        2.80255899       2.17521907       0.00231000
H        5.35742811       1.27189955       0.01403000
H        5.19377817      -1.44934948       0.01323999
H        2.73683881      -2.02467926       0.00194000
