14
Properties=species:S:1:pos:R:3 atomization_energy=-1408.81 smiles=C.C.N.C.N.C.N.H.H.H.H.H.H.H pbc="F F F"
C        1.08404952      -0.05884998       0.51786978
C        2.51999896       0.00000000       0.00000000
N        2.56769890      -0.58474974      -1.33600947
C        2.71117899      -1.91020931      -1.56914942
N        2.57254896      -2.48092899      -2.70783888
C        3.00201878       1.36116943       0.00000000
N        3.38622869       2.44615901       0.00000000
H        1.01115960       0.36005986       1.52803937
H        0.72219969      -1.09252962       0.55535977
H        0.40072986       0.50648980      -0.12747995
H        3.15329868      -0.59163977       0.67266971
H        2.23762918       0.00232000      -2.09324914
H        2.96978875      -2.50903894      -0.67871973
H        2.34800896      -1.79087933      -3.42667866
