19
Properties=species:S:1:pos:R:3 atomization_energy=-1899.39 smiles=C.C.C.C.C.C.C.H.H.H.H.H.H.H.H.H.H.H.H pbc="F F F"
C        0.81343970       1.00214961       0.92217965
C        1.80264932       0.71853969      -0.19646993
C        3.14618874       1.31417954       0.09551997
C        4.00553842       1.82451925      -1.02983962
C        3.37869862       2.79852901      -0.06457997
C        4.23144832       3.47587871       0.91462965
C        3.83327843       3.91613846       2.11654916
H       -0.14302995       0.51111980       0.71898972
H        0.63070974       2.07744917       1.01874960
H        1.19004959       0.63911974       1.88388927
H        1.39855949       1.10254957      -1.14048959
H        1.91569928      -0.36535986      -0.31408987
H        3.64562850       0.79822968       0.90952966
H        3.61277851       1.79942932      -2.04047923
H        5.07218781       1.63759933      -0.97390964
H        2.56147893       3.40450858      -0.44521983
H        5.27028803       3.63829853       0.63370977
H        2.80949886       3.78837860       2.45084909
H        4.52835844       4.41220834       2.78601893
