19
Properties=species:S:1:pos:R:3 atomization_energy=-1803.14 smiles=N.C.C.C.C.C.N.H.H.H.H.H.H.H.H.H.H.H.H pbc="F F F"
N        2.14524919      -0.31509989      -1.45110937
C        2.33836915       0.10057996      -0.06090998
C        3.07887888       1.44501948       0.05231998
C        2.29888915       2.62351886      -0.51665979
C        2.86403900       3.83475860       0.21364992
C        3.65681864       3.26832868       1.38308944
N        3.29031859       1.85497929       1.44834937
H        1.66054936      -1.21069950      -1.46390937
H        3.05183881      -0.47505980      -1.88709930
H        2.90513897      -0.67775974       0.46271982
H        1.35774945       0.16732994       0.42474984
H        4.05455831       1.36916946      -0.44818983
H        1.22722947       2.53458900      -0.30083989
H        2.41668898       2.71510905      -1.60082936
H        3.51512858       4.42111816      -0.44483982
H        2.05281924       4.48822818       0.55387979
H        4.73167838       3.37225862       1.19584955
H        3.42403877       3.78119852       2.32052908
H        4.03563851       1.30948946       1.87763927
