17
Properties=species:S:1:pos:R:3 atomization_energy=-1790.57 smiles=C.C.C.C.C.C.C.H.H.H.H.H.H.H.H.H.H pbc="F F F"
C        0.95557960      -0.04924998       0.08736996
C        2.45056900       0.02443999      -0.01663000
C        3.10639888       1.20013956      -0.08950996
C        4.60016838       1.31827942      -0.20756992
C        5.30447791      -0.00571000      -0.28602987
C        4.66456836      -1.18188958      -0.21061992
C        3.17512887      -1.30277946      -0.04055998
H        0.49238982       0.94297963       0.07979997
H        0.66313973      -0.54859976       1.01656959
H        0.54481977      -0.61411978      -0.75589973
H        2.55404904       2.13545924      -0.06746997
H        4.98219790       1.87378920       0.65627972
H        4.83764793       1.89892922      -1.10592955
H        6.38379761       0.01459999      -0.40963983
H        5.23008813      -2.10778922      -0.27307989
H        2.78265889      -1.91131919      -0.86367968
H        2.97463881      -1.83840933       0.89495967
