14
Properties=species:S:1:pos:R:3 atomization_energy=-1323.38 smiles=N.C.C.C.C.H.H.H.H.H.H.H.H.H pbc="F F F"
N        3.05809889      -0.97665961      -0.51969978
C        2.36303907       0.09762996       0.17207994
C        3.25144873       1.29929944       0.18049993
C        3.38504879       2.16612909      -1.04656956
C        2.65615892       2.68500896       0.16192994
H        2.47730905      -1.81305925      -0.50490980
H        3.90893844      -1.21162947      -0.01184000
H        2.13291927      -0.20318992       1.19917957
H        1.41645949       0.30385988      -0.33822986
H        4.13639842       1.15000955       0.78954967
H        2.80486883       1.90303919      -1.92392919
H        4.36397825       2.57380910      -1.27023946
H        3.14070887       3.45306872       0.75390971
H        1.57999941       2.79158889       0.09339996
