9
Properties=species:S:1:pos:R:3 atomization_energy=-1025.19 smiles=O.C.C.C.N.C.H.H.H pbc="F F F"
O        0.92297961      -0.05005998       0.00500000
C        2.12803919       0.02687999       0.00143000
C        2.97842883       1.20865953      -0.00181000
C        4.20448824       0.66995974      -0.00504000
N        4.30468848      -0.70703975      -0.00445000
C        3.08420887      -1.12508956      -0.00062000
H        2.66098905       2.23210918      -0.00153000
H        5.11767809       1.25639947      -0.00808000
H        2.69934895      -2.15281913       0.00116000
