14
Properties=species:S:1:pos:R:3 atomization_energy=-1324.08 smiles=C.C.C.C.N.H.H.H.H.H.H.H.H.H pbc="F F F"
C        1.03338961       0.01482999      -0.06886998
C        2.52309910       0.00786000      -0.01254000
C        3.31217880      -0.70633972      -1.07677960
C        3.32433865       0.79516966      -1.01353959
N        4.53786830       1.48152942      -0.58562975
H        0.63568975       0.78826966       0.59605980
H        0.63917974      -0.95217963       0.25957990
H        0.65849974       0.21011991      -1.07926961
H        2.88225883      -0.06782997       1.00703960
H        2.77962889      -1.16944953      -1.89968924
H        4.20298838      -1.24606953      -0.77604970
H        2.77973891       1.30903943      -1.80361929
H        5.00814815       0.97678963       0.16444994
H        4.31485844       2.40134901      -0.20676992
