11
Properties=species:S:1:pos:R:3 atomization_energy=-1151.39 smiles=O.C.N.C.C.C.H.H.H.H.H pbc="F F F"
O        2.73669902      -1.10325963       0.05930998
C        2.23282908       0.00950000      -0.00100000
N        2.91982893       1.19054959      -0.02861999
C        4.36033812       1.20939949       0.00000000
C        4.84235794       2.57057901       0.00000000
C        5.23963786       3.69246851       0.00000000
H        1.14177951       0.16506993      -0.04036999
H        2.41403900       2.06264918      -0.10279996
H        4.72439812       0.65808976      -0.87372965
H        4.69271793       0.66823972       0.89248966
H        5.60037769       4.69551831       0.00069000
