13
Properties=species:S:1:pos:R:3 atomization_energy=-1292.28 smiles=C.O.C.C.C.N.H.H.H.H.H.H.H pbc="F F F"
C        1.13020962      -0.25267990      -0.22794991
O        2.39983906       0.03388999       0.34246988
C        2.89400889       1.33854944       0.00000000
C        2.36522906       2.35599903       1.00859958
C        4.33800832       1.33854944       0.00000000
N        5.48901785       1.33854944       0.00000000
H        0.83480970      -1.25853949       0.08319997
H        1.18710956      -0.23097992      -1.31994947
H        0.37342985       0.45383981       0.12455995
H        2.54509910       1.61103932      -1.00406960
H        2.64756906       2.07866919       2.03101920
H        1.27191948       2.40173912       0.98645959
H        2.75294890       3.36008869       0.80598969
