12
Properties=species:S:1:pos:R:3 atomization_energy=-1268.25 smiles=C.C.N.C.N.C.N.H.H.H.H.H pbc="F F F"
C        1.17594958      -0.32164987      -0.22766992
C        2.43284904      -0.43206984       0.21151991
N        3.43719860       0.48270982       0.03363999
C        4.74410822       0.44762981       0.44838984
N        5.37550764      -0.45435983       1.11537960
C        5.59222790       1.58365936       0.10657996
N        6.20213777       2.52393911      -0.20427993
H        0.45206984      -1.10774961      -0.03219999
H        0.83170969       0.54181981      -0.78723971
H        2.71896896      -1.32200950       0.76747971
H        3.15844876       1.31116948      -0.48760981
H        4.74371812      -1.22679950       1.33108952
