11
Properties=species:S:1:pos:R:3 atomization_energy=-1152.1 smiles=N.C.C.C.C.O.H.H.H.H.H pbc="F F F"
N        5.35598780      -1.90551923       0.04481998
C        4.57490800      -1.06032963       0.02493999
C        3.59500859       0.00000000       0.00000000
C        4.39731827       1.25910950       0.03629999
C        4.83234796       1.96683926      -1.22360953
O        3.69664862       2.40768909      -0.46725983
H        2.93558879      -0.04707998       0.87216968
H        2.97173877      -0.05812998      -0.89851962
H        4.97342787       1.39425951       0.94419966
H        4.64670835       1.50157940      -2.18443926
H        5.72623800       2.57921908      -1.18638953
