19
Properties=species:S:1:pos:R:3 atomization_energy=-1788.4 smiles=C.C.N.C.C.C.N.H.H.H.H.H.H.H.H.H.H.H.H pbc="F F F"
C        3.10453869      -1.13661959      -0.51625978
C        2.44298897       0.08420997       0.11641996
N        2.03013920      -0.20906992       1.48612942
C        3.38946862       1.25014947       0.16927994
C        3.53561864       2.15550923      -1.02951960
C        2.85669894       2.66048893       0.21147992
N        3.53101864       3.66726844       1.02890959
H        3.41307876      -0.91772966      -1.54434943
H        2.41551893      -1.98760928      -0.54581976
H        4.00067852      -1.44237946       0.03579999
H        1.55028943       0.34397986      -0.46503982
H        2.83295885      -0.53171981       2.02384922
H        1.37108945      -0.98625962       1.47881937
H        4.29195836       1.02542956       0.72684971
H        2.91361881       1.97903922      -1.89986928
H        4.52406830       2.52934909      -1.26891951
H        1.77768935       2.78497882       0.15604994
H        4.53010810       3.48157862       1.09720961
H        3.17793883       3.62367846       1.98590919
