19
Properties=species:S:1:pos:R:3 atomization_energy=-1781.77 smiles=C.C.C.C.C.N.N.H.H.H.H.H.H.H.H.H.H.H.H pbc="F F F"
C        0.96848963      -0.07082998      -0.05893998
C        2.49859899      -0.02402999       0.02117999
C        2.97181876      -0.70250971       1.31203952
C        3.10678873      -0.73975973      -1.19070957
C        2.91768891       1.43902939      -0.04645998
N        3.52361852       2.03231922       0.93434965
N        3.79733838       3.33071859       0.67733973
H        0.60198977       0.40532985      -0.97591958
H        0.51343979       0.46080983       0.78486969
H        0.60057974      -1.10265958      -0.04618998
H        2.55171901      -0.21277991       2.19810905
H        4.06349840      -0.66650974       1.40357950
H        2.66932884      -1.75531930       1.33947954
H        2.78049893      -0.28067988      -2.13126928
H        2.81753889      -1.79613930      -1.21546957
H        4.20164825      -0.68925974      -1.16931957
H        2.66801899       1.97829926      -0.98127961
H        4.44073843       3.68271868       1.39156941
H        2.95669882       3.90385851       0.78776967
