15
Properties=species:S:1:pos:R:3 atomization_energy=-1409.71 smiles=O.C.C.N.C.C.H.H.H.H.H.H.H.H.H pbc="F F F"
O        0.73044972       0.26387989      -0.35540987
C        2.12567913      -0.02344999      -0.41987984
C        2.89651882       0.95142964       0.47231983
N        4.33646809       0.66905973       0.41010983
C        5.09442778       1.63780939      -0.37809984
C        5.13644800       1.65906931       1.12724952
H        0.28310990      -0.40819984      -0.89798966
H        2.44440909       0.06562998      -1.46359939
H        2.27955906      -1.05625959      -0.08909997
H        2.54597898       0.83064964       1.50550946
H        2.63697897       1.98198923       0.19098992
H        4.56438831       2.42990913      -0.89223967
H        5.95703783       1.24682955      -0.90296967
H        6.02349784       1.27824946       1.61792935
H        4.62488826       2.45765901       1.65038936
