17
Properties=species:S:1:pos:R:3 atomization_energy=-1638.41 smiles=C.C.C.C.C.N.N.H.H.H.H.H.H.H.H.H.H pbc="F F F"
C        1.10695956       0.01145999       0.05340998
C        2.61463907       0.10551996      -0.02243999
C        3.38237862      -1.21194955      -0.06905997
C        3.47775857      -1.68509930      -1.49048945
C        2.97406880      -2.84096885      -1.94210928
N        3.13681867       1.29957953      -0.07660997
N        4.48357822       1.36459949      -0.15838994
H        0.65862975       1.00852961       0.09438996
H        0.82423967      -0.54226978       0.95227962
H        0.72791972      -0.51275979      -0.82741968
H        2.85532877      -1.93986921       0.55845979
H        4.38476833      -1.09812961       0.35289986
H        4.00139842      -1.02616959      -2.18231917
H        2.44987913      -3.53255861      -1.29081947
H        3.08342866      -3.12053877      -2.98605882
H        4.75177808       2.30704904      -0.45652982
H        4.90001816       1.27173944       0.77249972
