18
Properties=species:S:1:pos:R:3 atomization_energy=-1786.09 smiles=C.N.C.C.C.C.C.H.H.H.H.H.H.H.H.H.H.H pbc="F F F"
C        0.93203962       0.02628999      -0.39912985
N        2.28235918      -0.00245000       0.15378994
C        3.05776884       1.19311958      -0.21477992
C        3.51251872       1.24840952      -1.68569934
C        4.01177832      -0.07603997      -2.17828919
C        3.77650844      -1.19840958      -1.48667937
C        2.99844880      -1.23718949      -0.19982992
H        0.40426984       0.92694966      -0.06531997
H        0.34981985      -0.82212968      -0.02104999
H        0.91063966      -0.00245000      -1.49273935
H        3.94651839       1.22952947       0.42931984
H        2.49199902       2.10212918       0.02462999
H        4.31055821       1.99349919      -1.78111929
H        2.68615884       1.57156941      -2.32909900
H        4.58007827      -0.10366996      -3.10377867
H        4.17274825      -2.14314904      -1.84707931
H        2.30325902      -2.08576916      -0.23140991
H        3.70465863      -1.46466940       0.60821977
