14
Properties=species:S:1:pos:R:3 atomization_energy=-1454.71 smiles=C.C.C.C.C.C.H.H.H.H.H.H.H.H pbc="F F F"
C        1.04238957      -0.25283989       0.16859994
C        2.51876909       0.00384000      -0.10271996
C        2.86334887       1.47336940      -0.06440997
C        3.16105888       2.15995909      -1.17865949
C        2.91185880       2.14881917       1.19311958
C        2.95149878       2.71280905       2.25132900
H        0.83017968      -1.32529953       0.11020996
H        0.41085985       0.25709989      -0.56667980
H        0.75211968       0.09202997       1.16653951
H        2.77581895      -0.42512985      -1.07936953
H        3.12637872      -0.53364976       0.63584972
H        3.14972870       1.68753934      -2.15544918
H        3.42169865       3.21394877      -1.14464952
H        2.98704872       3.21466867       3.19040879
