15
Properties=species:S:1:pos:R:3 atomization_energy=-1423.83 smiles=N.C.C.C.C.O.H.H.H.H.H.H.H.H.H pbc="F F F"
N        2.80793895      -0.72501974       0.97436964
C        2.31475902       0.20210993      -0.03263999
C        2.84345886       1.59207940       0.20993992
C        2.00736921       2.61077891       0.48587980
C        4.34426815       1.73500929       0.10466996
O        4.74734816       3.10020869       0.09749996
H        2.38367901      -1.63851933       0.82240970
H        2.48159893      -0.41532984       1.88990926
H        1.21861955       0.18701993      -0.02324999
H        2.62668890      -0.13870994      -1.02623961
H        0.93344965       2.46574900       0.55208981
H        2.37441896       3.61381862       0.68322971
H        4.70912805       1.27851946      -0.82174967
H        4.83720786       1.24422953       0.94932961
H        4.33099805       3.50165864      -0.68297971
