21
Properties=species:S:1:pos:R:3 atomization_energy=-1926.0 smiles=C.N.C.C.C.C.N.H.H.H.H.H.H.H.H.H.H.H.H.H.H pbc="F F F"
C        0.96596960       1.77086934       1.03947962
N        2.41806899       1.88561925       1.09096958
C        3.03327883       1.30769955      -0.10712996
C        4.57210813       1.42223939      -0.07094997
C        5.15636804       0.68128973      -1.28146946
C        5.02174780       2.89601896      -0.04216998
N        6.47829768       3.02576870       0.03282999
H        0.53288980       2.22969916       1.93352926
H        0.64739975       0.72392974       1.00952961
H        0.55728979       2.29526921       0.16975994
H        2.76226901       1.39615944       1.91728922
H        2.65326897       1.81611927      -1.00219964
H        2.75375889       0.24925990      -0.18351992
H        4.93790821       0.92137963       0.83614965
H        4.84804801       1.15327951      -2.22059909
H        4.81679829      -0.35994984      -1.29941955
H        6.25037745       0.66522972      -1.25178950
H        4.59084827       3.41142876       0.82283968
H        4.66860819       3.41480874      -0.94050963
H        6.80914736       2.59308897       0.89359967
H        6.71747743       4.01450854       0.10399996
