16
Properties=species:S:1:pos:R:3 atomization_energy=-1609.34 smiles=C.C.C.N.C.C.C.H.H.H.H.H.H.H.H.H pbc="F F F"
C        0.95901963       0.11920995       0.22129991
C        2.12868919       0.11559995      -0.05216998
C        3.55883867       0.11110995      -0.38837985
N        4.30920823       0.83764969       0.63270978
C        5.74592791       0.87631965       0.35258985
C        6.31956770       2.06669922      -0.36210986
C        6.59417728       1.86665920       1.09983953
H       -0.07889997       0.13048995       0.46525982
H        3.70500861       0.57735978      -1.36911950
H        3.91376857      -0.92444962      -0.45439983
H        4.12892840       0.40365983       1.53734938
H        6.21073773      -0.08870996       0.15794994
H        5.65042759       2.87198894      -0.64318972
H        7.13060729       1.89838923      -1.06006960
H        7.59163718       1.56107937       1.39241951
H        6.11131770       2.53832906       1.80022935
