13
Properties=species:S:1:pos:R:3 atomization_energy=-1355.63 smiles=C.N.C.C.C.C.N.H.H.H.H.H.H pbc="F F F"
C        1.01341961      -0.06296997      -0.28167987
N        2.42151911       0.00866000       0.09026996
C        2.96069877       1.38567949       0.00000000
C        2.40702899       2.21893925       1.08995963
C        1.95642920       2.89746885       1.97396926
C        4.40469846       1.38567949       0.00000000
N        5.55570799       1.38567949       0.00000000
H        0.68209971      -1.10531953      -0.23391990
H        0.84875965       0.29119989      -1.30459953
H        0.37843986       0.50737981       0.40294983
H        2.95454896      -0.58850979      -0.54243978
H        2.64029889       1.81769925      -0.95774965
H        1.56114939       3.49205869       2.76531894
