14
Properties=species:S:1:pos:R:3 atomization_energy=-1318.73 smiles=C.N.C.C.C.H.H.H.H.H.H.H.H.H pbc="F F F"
C        2.94522885      -1.07509958      -0.39615985
N        2.31520918       0.13268995       0.12093995
C        3.24488862       1.26334955       0.17567993
C        3.39838879       2.14835917      -1.02807961
C        2.67811905       2.65478901       0.18785993
H        2.20904913      -1.88342927      -0.43804984
H        3.77056856      -1.39929945       0.24573991
H        3.32455868      -0.91865963      -1.41094946
H        1.93399923      -0.05907998       1.04754962
H        4.13214840       1.10499958       0.78614970
H        2.80785896       1.92549919      -1.90915923
H        4.38273807       2.54686895      -1.24057956
H        3.17393887       3.39903854       0.79892971
H        1.60317932       2.77634884       0.12175995
