22
Properties=species:S:1:pos:R:3 atomization_energy=-2057.64 smiles=C.C.C.N.C.C.C.H.H.H.H.H.H.H.H.H.H.H.H.H.H.H pbc="F F F"
C        0.72303970       1.08730952      -1.18586947
C        2.04359918       1.00634960      -0.43540982
C        2.83527879       2.30866900      -0.55858981
N        4.08842848       2.19570913       0.18801992
C        4.88395828       3.41827855       0.07348997
C        6.18018748       3.26469864       0.86977966
C        7.03866737       4.51699798       0.77826971
H        0.17157994       0.14724994      -1.08507954
H        0.88851967       1.27156949      -2.25212914
H        0.09610996       1.89291919      -0.79064971
H        2.62950896       0.16914993      -0.83438970
H        1.84172926       0.78675971       0.62021976
H        2.23703922       3.13667888      -0.16060993
H        3.03956870       2.51379892      -1.61620933
H        4.62639821       1.40324944      -0.16245993
H        4.31738831       4.27182839       0.46389982
H        5.12117792       3.61953846      -0.97800964
H        6.75589739       2.40984904       0.49413979
H        5.95216783       3.06391891       1.92384920
H        7.31744698       4.72599790      -0.25943990
H        7.95826693       4.38923812       1.35786944
H        6.50603747       5.38774773       1.17357956
