19
Properties=species:S:1:pos:R:3 atomization_energy=-1779.47 smiles=C.C.C.N.N.C.C.H.H.H.H.H.H.H.H.H.H.H.H pbc="F F F"
C        0.87460966      -0.88327964       0.99282963
C        2.21999904      -0.59160975       0.34613985
C        2.50792894       0.90866965       0.31611987
N        3.80851842       1.16217948      -0.30999986
N        4.16739832       2.46483909      -0.38895983
C        5.34472777       2.64631901      -0.89370962
C        5.89561788       4.02781851      -1.06141957
H        0.68102976      -1.96049918       0.99607959
H        0.06180997      -0.39366985       0.44649981
H        0.85297963      -0.53111976       2.02945917
H        2.21978910      -0.99569958      -0.67309975
H        3.00612875      -1.11453959       0.90266965
H        2.50979897       1.30652949       1.33835944
H        1.72086927       1.42802938      -0.24491991
H        3.83104858       0.70679972      -1.22539956
H        5.99156785       1.81070929      -1.21742955
H        5.18544821       4.77934830      -0.70866975
H        6.11286752       4.19528824      -2.11969914
H        6.82782744       4.10812848      -0.49595980
