15
Properties=species:S:1:pos:R:3 atomization_energy=-1505.11 smiles=C.C.C.C.N.N.C.H.H.H.H.H.H.H.H pbc="F F F"
C        0.92817965      -0.18355993       0.01265000
C        2.40558894      -0.40988983       0.01744999
C        2.98463870      -1.60830934       0.18146992
C        3.29084874       0.76943969      -0.17145993
N        2.83908899       1.97119916      -0.33808988
N        3.88476839       2.87758893      -0.49004982
C        3.42610864       4.07215841      -0.65480977
H        0.64130973       0.50355980       0.81535969
H        0.37464984      -1.11675960       0.16221993
H        0.60713979       0.24210990      -0.94364964
H        2.38602897      -2.50322902       0.32351987
H        4.06270835      -1.73811926       0.17992993
H        4.37788826       0.56682981      -0.16259994
H        4.12339831       4.91275785      -0.79042968
H        2.34810914       4.30769828      -0.66822976
