19
Properties=species:S:1:pos:R:3 atomization_energy=-1788.97 smiles=C.C.N.C.N.C.C.H.H.H.H.H.H.H.H.H.H.H.H pbc="F F F"
C        3.12188874      -1.33990951      -0.67963973
C        2.52321896      -0.22531990       0.17846992
N        2.37973911      -0.67055972       1.58282944
C        3.31708867       1.12264952       0.06568997
N        2.72927897       2.11774912       0.97742960
C        4.77802810       1.00231962       0.41805984
C        5.78420757       1.09050958      -0.46353981
H        3.21718870      -1.01329962      -1.72022936
H        2.47702896      -2.22539918      -0.66934973
H        4.11087839      -1.64666937      -0.32541986
H        1.50592947      -0.03555999      -0.18909993
H        3.31102868      -0.85528967       1.96035926
H        1.89583929      -1.56818943       1.59996942
H        3.21613875       1.50024937      -0.95979959
H        2.52346901       1.60816943       1.84430922
H        1.80468930       2.36127906       0.62544976
H        5.01959794       0.85394966       1.46777938
H        5.60556764       1.25280955      -1.51986938
H        6.81575743       1.01077959      -0.13279995
