19
Properties=species:S:1:pos:R:3 atomization_energy=-1928.82 smiles=C.C.C.C.C.C.C.H.H.H.H.H.H.H.H.H.H.H.H pbc="F F F"
C        1.00297959       0.02772999       0.06117998
C        2.34415914       0.00665000       0.02737999
C        3.13466881      -1.27812948       0.01480000
C        4.10149848      -1.30763949      -1.16948952
C        4.98206820      -0.05829998      -1.21557946
C        4.14375841       1.22169950      -1.20926954
C        3.17599865       1.26242955      -0.02556999
H        0.45092984       0.96334964       0.06031998
H        0.42073982      -0.88726962       0.09044996
H        2.47565905      -2.15333918      -0.03398999
H        3.69810861      -1.35651946       0.95359962
H        4.73408815      -2.20006916      -1.10488956
H        3.53391868      -1.38560947      -2.10477917
H        5.65748782      -0.05522998      -0.35118985
H        5.61028774      -0.08265997      -2.11312919
H        4.80628819       2.09430919      -1.17298948
H        3.57908850       1.28906955      -2.14844925
H        3.74170843       1.35292942       0.90924963
H        2.54666911       2.15618926      -0.10466996
