22
Properties=species:S:1:pos:R:3 atomization_energy=-2048.32 smiles=C.N.C.C.C.C.C.H.H.H.H.H.H.H.H.H.H.H.H.H.H.H pbc="F F F"
C        0.98045960      -0.07709997      -0.05693998
N        2.44100893       0.04425998      -0.08204997
C        2.97039890      -0.79188967      -1.16377952
C        2.95004888       1.44712947      -0.07289997
C        2.52221897       2.27092908      -1.30563951
C        2.45285916       2.18000908       1.19676955
C        4.49593841       1.45441945       0.00206000
H        0.54350980       0.40562984       0.82137969
H        0.68902974      -1.13140958       0.02050999
H        0.50929979       0.33099988      -0.95655960
H        2.60268892      -1.81999924      -1.06408962
H        4.06024838      -0.87332964      -1.12181960
H        2.67951899      -0.43046984      -2.15515924
H        2.88931880       1.83200933      -2.23895921
H        2.92728886       3.28833880      -1.24991948
H        1.43432946       2.36491919      -1.37890944
H        2.67343907       1.60144934       2.10143919
H        1.37598947       2.37571897       1.16871953
H        2.94233890       3.15527872       1.30587948
H        4.85687809       0.82697968       0.82487965
H        4.87749809       2.46807902       0.17294992
H        4.95718784       1.10232953      -0.92677965
