15
Properties=species:S:1:pos:R:3 atomization_energy=-1435.56 smiles=N.C.C.C.O.C.H.H.H.H.H.H.H.H.H pbc="F F F"
N        0.98715962       0.01977999      -0.04185999
C        2.44191909       0.00916000       0.02581999
C        2.99972887       1.11848958       0.89068966
C        4.40543829       0.61894977       1.15708958
O        4.34605819      -0.81419966       1.18068949
C        3.05433890      -1.21774951       0.69572970
H        0.66381976      -0.74156971      -0.63777974
H        0.66850972       0.88364968      -0.47925982
H        2.85173886       0.10644995      -0.98752960
H        2.44876912       1.18876952       1.83802932
H        2.98221885       2.10324916       0.41401983
H        5.08763805       0.91118962       0.35157986
H        4.80799799       0.98736962       2.10499920
H        3.16524884      -2.06078925       0.00643000
H        2.46640910      -1.55053936       1.55944943
