22
Properties=species:S:1:pos:R:3 atomization_energy=-2055.72 smiles=C.N.C.C.C.C.C.H.H.H.H.H.H.H.H.H.H.H.H.H.H.H pbc="F F F"
C        1.64417937      -0.48392981       0.47744982
N        3.01556871      -0.10223996       0.78990969
C        3.37074868       1.24890952       0.32313989
C        2.51262911       2.32829911       0.99804960
C        4.88629789       1.54225937       0.53881977
C        5.33595775       1.41476951       1.99932918
C        5.77612792       0.66578971      -0.35195987
H        1.49407936      -1.53375934       0.74776967
H        1.42737938      -0.37990985      -0.59008977
H        0.92036962       0.09710996       1.05499957
H        3.64346855      -0.78124968       0.36125985
H        3.18302885       1.30695946      -0.75779972
H        2.51468890       2.23004915       2.08886918
H        1.47223946       2.27795903       0.65937974
H        2.87902899       3.32996867       0.74771971
H        5.06679801       2.58185897       0.23233990
H        5.22067819       0.39181985       2.37097918
H        4.76783796       2.08270914       2.65286903
H        6.39284772       1.68519935       2.09875917
H        5.74222772      -0.38767985      -0.05812998
H        6.81988708       0.99185960      -0.28648988
H        5.47186790       0.74100972      -1.40057940
