15
Properties=species:S:1:pos:R:3 atomization_energy=-1599.99 smiles=C.C.C.C.C.C.C.H.H.H.H.H.H.H.H pbc="F F F"
C        1.89684925      -0.64196977      -1.11832961
C        2.06156921       0.33535988      -0.21762992
C        3.21804865       1.23254950      -0.12964995
C        3.47752870       2.20655912      -1.24747956
C        2.97615886       2.71137884       0.07834997
C        3.87653835       3.44413871       0.92074963
C        4.62756802       4.05905838       1.62640932
H        1.01105962      -1.26853950      -1.10554953
H        2.64242907      -0.83401966      -1.88333931
H        1.28440950       0.47327982       0.53280981
H        4.08582846       0.79165967       0.35325985
H        2.79303878       2.23869906      -2.08766922
H        4.51008814       2.39330898      -1.52119942
H        1.94471927       3.05384888       0.10144996
H        5.29469805       4.60513829       2.25281901
