22
Properties=species:S:1:pos:R:3 atomization_energy=-2061.07 smiles=C.C.C.C.C.C.N.H.H.H.H.H.H.H.H.H.H.H.H.H.H.H pbc="F F F"
C        2.91851883      -0.88357966      -1.01063961
C        2.45088895      -0.03390998       0.16283994
C        2.96888894       1.41966940       0.12991995
C        2.27442917       2.21819916       1.23960947
C        4.50631831       1.47975944       0.25552990
C        5.07266825       2.90130883       0.21039992
N        6.53211742       2.86169887       0.22597991
H        2.41852899      -1.85762928      -0.98938959
H        3.99570835      -1.06882953      -0.97234960
H        2.68047886      -0.40246984      -1.96460928
H        2.75092899      -0.51885981       1.09975954
H        1.35365942      -0.02398999       0.15169994
H        2.68048895       1.86445926      -0.83154965
H        2.59823906       1.88306932       2.23075921
H        1.18636959       2.10283912       1.18219957
H        2.48494913       3.28843872       1.15283956
H        4.95655802       0.90741966      -0.56447978
H        4.81630827       0.99099959       1.18850949
H        4.73242831       3.48512866       1.07109963
H        4.73900810       3.41166873      -0.69923975
H        6.85282741       2.41092902       1.08222958
H        6.89514740       3.81381839       0.25143990
