17
Properties=species:S:1:pos:R:3 atomization_energy=-1638.81 smiles=C.C.C.C.C.N.N.H.H.H.H.H.H.H.H.H.H pbc="F F F"
C        0.74545971       0.97794959      -0.76616967
C        2.23647905       0.89353967      -0.82144964
C        3.05757884       1.55849941       0.00815000
C        4.55417798       1.45970945      -0.03643999
C        5.11936820       2.82321886      -0.34345987
N        5.80869783       3.47044854       0.54428981
N        6.24745748       4.66902807       0.09987996
H        0.35686986       1.32532943      -1.72811938
H        0.39771986       1.66497929       0.01133000
H        0.32450989      -0.01130000      -0.56200978
H        2.65005906       0.23810990      -1.58475939
H        2.64057898       2.20332903       0.78004972
H        4.89399804       0.77031970      -0.81614968
H        4.93030800       1.10670963       0.92897966
H        4.92534818       3.22827866      -1.35421946
H        6.94559751       5.03259804       0.75446970
H        5.49259793       5.35957797       0.12316995
