12
Properties=species:S:1:pos:R:3 atomization_energy=-1123.86 smiles=O.S.O.C.C.C.H.H.H.H.H.H pbc="F F F"
O        0.91118962      -0.03773998       0.10657996
S        2.33353903      -0.00110000      -0.15205994
O        2.89670883       0.04824998      -1.48544938
C        3.17217886       1.09586960       0.95568962
C        4.22320845      -0.00130000       1.23198957
C        3.21791870      -1.12351955       0.89284968
H        2.55478887       1.36475947       1.81854923
H        3.55615865       2.00196919       0.48098980
H        5.07952812       0.03570999       0.54713977
H        4.61189825      -0.02224999       2.25410918
H        3.63833866      -1.98472917       0.36812985
H        2.61312887      -1.46592941       1.73841929
