15
Properties=species:S:1:pos:R:3 atomization_energy=-1406.71 smiles=C.N.C.C.O.C.H.H.H.H.H.H.H.H.H pbc="F F F"
C        2.21386916      -0.49287981      -1.34188942
N        2.32433903       0.08863996      -0.00817000
C        3.18683880       1.28009955      -0.06522998
C        2.38017918       2.52987899      -0.44916982
O        2.82474900       3.21831864       0.75332973
C        3.25164882       1.94768920       1.31764948
H        1.55106939      -1.36336950      -1.30517952
H        3.18817868      -0.82673965      -1.71434928
H        1.78322928       0.21682992      -2.05582917
H        2.66607907      -0.62899975       0.63143973
H        4.15761846       1.16450951      -0.55684979
H        1.28837955       2.44508912      -0.46631980
H        2.72390885       3.03962875      -1.35359949
H        4.25411827       2.01716925       1.74957927
H        2.54549905       1.60552941       2.08187922
