19
Properties=species:S:1:pos:R:3 atomization_energy=-1778.08 smiles=C.N.C.C.C.C.N.H.H.H.H.H.H.H.H.H.H.H.H pbc="F F F"
C        1.51348944      -0.12777995       0.55585977
N        2.92673877       0.20078992       0.67631974
C        3.18627863       1.65010940       0.65347973
C        2.51125896       2.40111914       1.80411928
C        4.68827791       1.80457928       0.75535967
C        5.53759767       1.88187932      -0.49049982
N        5.32483801       3.05949882       0.34214986
H        1.40350947      -1.21280949       0.45338981
H        1.06125959       0.33758986      -0.32789986
H        0.95198962       0.16239994       1.44747945
H        3.42208875      -0.22177992      -0.10883996
H        2.83364898       2.06778917      -0.29855989
H        2.79120888       1.98027917       2.77639880
H        1.42044948       2.37758900       1.71835933
H        2.81201889       3.45504876       1.80550925
H        5.10400779       1.32862942       1.63752930
H        5.05330788       1.90189929      -1.45881947
H        6.52767739       1.44460944      -0.47152981
H        6.14097772       3.24956861       0.92743962
