21
Properties=species:S:1:pos:R:3 atomization_energy=-1934.81 smiles=C.C.C.N.C.C.N.H.H.H.H.H.H.H.H.H.H.H.H.H.H pbc="F F F"
C        1.03829959      -0.16145994       0.36042987
C        2.55981910      -0.15584994       0.28269989
C        3.18659884       1.24506954       0.45219982
N        2.86714898       1.80806928       1.77954928
C        4.73502833       1.18413949       0.24157991
C        5.33409806       2.58575900       0.08534997
N        5.40339781       0.50007980       1.36510945
H        0.65460973      -1.15716957       0.11356995
H        0.60375975       0.55330977      -0.34569988
H        0.68546972       0.08518997       1.36682947
H        2.84966898      -0.55566976      -0.69663973
H        2.95320882      -0.85041967       1.03398959
H        2.76135885       1.91112931      -0.30867989
H        3.12096874       1.10812962       2.47826892
H        1.85765931       1.92196921       1.86213932
H        4.94612816       0.62042976      -0.67511972
H        5.19603804       3.19456872       0.98533962
H        4.86715806       3.11249874      -0.75349968
H        6.40920736       2.52923907      -0.11837995
H        5.23250799       1.06087958       2.20098916
H        6.41226764       0.53207982       1.22023952
