15
Properties=species:S:1:pos:R:3 atomization_energy=-1653.5 smiles=C.C.C.C.C.C.C.H.H.H.H.H.H.H.H pbc="F F F"
C        0.94637961       0.00331000      -0.19617992
C        2.26934898       0.00834000       0.02747999
C        2.98310882       1.27421948       0.14358994
C        4.29411832       1.28051943       0.43154982
C        5.09677799       0.02014999       0.64239974
C        4.30519819      -1.24604947       0.43198982
C        2.99349881      -1.25039954       0.14374995
H        0.38551986      -0.92228961      -0.28692988
H        0.37788984       0.92324966      -0.28667988
H        2.44514892       2.20546905      -0.00243000
H        4.82161833       2.22520918       0.52094980
H        5.94715755       0.02398999      -0.04932998
H        5.49857767       0.02223999       1.66257936
H        4.83969786      -2.18643924       0.52152978
H        2.46318910      -2.18689924      -0.00189000
