11
Properties=species:S:1:pos:R:3 atomization_energy=-1174.72 smiles=N.C.C.O.C.C.H.H.H.H.H pbc="F F F"
N        0.98315960       0.02513999      -0.00889000
C        2.32305920      -0.00678000      -0.00204000
C        3.16930885       1.07370962       0.00203000
O        4.46332813       0.65309972       0.00888000
C        4.43146828      -0.70623974       0.00881999
C        3.13109883      -1.16034958       0.00213000
H        0.45389984       0.89130963      -0.00058000
H        0.41445983      -0.81516969      -0.00052000
H        3.02741869       2.14461912       0.00093000
H        5.39537772      -1.19501951       0.01374999
H        2.82029889      -2.19415906       0.00042000
