11
Properties=species:S:1:pos:R:3 atomization_energy=-1292.91 smiles=N.C.C.C.C.C.N.H.H.H.H pbc="F F F"
N        0.94044963      -0.05692998      -0.00839000
C        2.09779918       0.00122000      -0.00402000
C        3.51939853       0.03708998       0.00135000
C        4.34834834       1.13956959       0.00410000
C        5.68414763       0.66585973       0.00932000
C        5.63137759      -0.71039973       0.00962000
N        4.31122840      -1.08311956       0.00475000
H        4.03022853       2.17510906       0.00253000
H        6.58647764       1.26477951       0.01250999
H        6.41727742      -1.45468944       0.01286000
H        3.97210831      -2.03724914       0.00380000
