13
Properties=species:S:1:pos:R:3 atomization_energy=-1321.23 smiles=C.C.C.N.N.C.C.H.H.H.H.H.H pbc="F F F"
C        1.68152931       1.54964939      -1.45249946
C        2.56422909       1.28747949      -0.68030973
C        3.61483854       0.97284960       0.24706990
N        4.78342799       1.10451952      -0.27400989
N        5.75628762       0.80474967       0.61189976
C        6.86376749       0.23127991      -0.15605994
C        6.90041709       1.65942938       0.28694987
H        0.90664968       1.78415925      -2.14438924
H        3.37395858       0.65978972       1.27620949
H        6.70400748       0.01458999      -1.20557957
H        7.47577727      -0.48523982       0.37551985
H        7.53750709       1.92008921       1.12163956
H        6.76623742       2.43893905      -0.45356982
