15
Properties=species:S:1:pos:R:3 atomization_energy=-1518.86 smiles=N.C.N.C.C.C.C.H.H.H.H.H.H.H.H pbc="F F F"
N        1.03284962      -0.05883998       0.01866999
C        2.30381920      -0.06100998       0.09740996
N        3.22231885      -1.07066953       0.23867990
C        4.51098846      -0.39267986       0.06748998
C        4.33473810       0.65745975      -1.10199961
C        3.26323865       1.16313960      -0.05586998
C        4.43030806       0.90177962       0.97477962
H        0.68744970      -1.01362961       0.15170994
H        3.06250889      -1.87832927      -0.35338986
H        5.39267777      -1.02886960       0.10849995
H        3.94488833       0.26881991      -2.04734920
H        5.18244799       1.32061954      -1.30515945
H        2.84395898       2.16030907      -0.15720994
H        5.28577814       1.58499936       0.94058962
H        4.13218827       0.74738973       2.01584918
