11
Properties=species:S:1:pos:R:3 atomization_energy=-1148.94 smiles=C.C.C.S.N.C.H.H.H.H.H pbc="F F F"
C        0.94788962       0.00932000      -0.00754000
C        2.43394895       0.04450998      -0.00125000
C        3.22106880       1.18151953       0.00189000
S        4.87088803       0.72727969       0.00872000
N        4.59540840      -0.90777961       0.00764000
C        3.28115871      -1.10957951       0.00229000
H        0.52452978       1.01871957       0.00271000
H        0.57532978      -0.52380979       0.87288964
H        0.58271980      -0.50300981      -0.90330963
H        2.92265883       2.22016912       0.00047000
H        2.94516879      -2.14004915       0.00078000
