17
Properties=species:S:1:pos:R:3 atomization_energy=-1792.2 smiles=C.C.C.C.C.C.C.H.H.H.H.H.H.H.H.H.H pbc="F F F"
C        0.92242965      -0.04075998      -0.00217000
C        2.40670903       0.02333999       0.00192000
C        3.22739879       1.09238957       0.00530000
C        2.91117877       2.54537894       0.00516000
C        4.60062813       0.63019977       0.00892000
C        4.62551808      -0.70889975       0.00779999
C        3.22485882      -1.24256957       0.00322000
H        0.46202983       0.95073964       0.00193000
H        0.56452981      -0.57793976       0.88177965
H        0.56901979      -0.56893980      -0.89330968
H        1.83442931       2.73515904      -0.00240000
H        3.33863877       3.03029880      -0.87872966
H        3.32608857       3.02764882       0.89643965
H        5.46197803       1.28169946       0.01200999
H        5.51411775      -1.32148945       0.00984999
H        3.03681879      -1.84024933      -0.89377964
H        3.03159881      -1.84177922       0.89807962
