19
Properties=species:S:1:pos:R:3 atomization_energy=-1929.19 smiles=C.C.C.C.C.C.C.H.H.H.H.H.H.H.H.H.H.H.H pbc="F F F"
C        0.95240963      -0.00807000       0.04614998
C        2.45321898       0.00980999       0.00425000
C        3.13211875       1.16762958      -0.08007996
C        4.63083824       1.25717955      -0.08576997
C        5.31494814      -0.04803998       0.32265986
C        4.63599841      -1.25118946      -0.32117987
C        3.15470871      -1.32538948       0.06016998
H        0.56269978      -1.02981962      -0.01089000
H        0.53383976       0.55024981      -0.79812970
H        0.59032979       0.43444983       0.97987961
H        2.59186895       2.11049913      -0.13756994
H        4.95468825       1.54638940      -1.09252962
H        4.94980815       2.05423923       0.59539976
H        6.37263750      -0.01448000       0.03790999
H        5.28297777      -0.15455994       1.41448942
H        5.14073814      -2.17566923      -0.01865999
H        4.73044802      -1.18019959      -1.41248944
H        3.05843878      -1.72555935       1.07697958
H        2.66248890      -2.03543917      -0.61514973
