20
Properties=species:S:1:pos:R:3 atomization_energy=-1911.07 smiles=C.C.N.C.C.C.C.H.H.H.H.H.H.H.H.H.H.H.H.H pbc="F F F"
C        1.00222960       0.52739980       0.11536995
C        2.50164892       0.30915988      -0.01232000
N        3.19853865       1.59151935       0.05957997
C        4.63571832       1.41504947      -0.12172995
C        5.26526815       2.77338899      -0.09500996
C        5.85806745       3.33221870       1.17392954
C        6.76049739       2.90512887       0.04943998
H        0.47532983      -0.43013982       0.04880998
H        0.62693978       1.17378950      -0.68522975
H        0.74659968       0.98699964       1.07668952
H        2.70443897      -0.18116993      -0.97111962
H        2.83987879      -0.35758985       0.78954967
H        3.02805886       2.02578926       0.96577959
H        4.84493828       0.95094964      -1.09246956
H        5.05094808       0.77295972       0.66336973
H        4.78355819       3.46077870      -0.78434969
H        5.84495783       2.72297901       2.07035916
H        5.74661778       4.39442807       1.35890942
H        7.25560715       3.67722845      -0.52780981
H        7.35097726       2.00534917       0.18312993
