17
Properties=species:S:1:pos:R:3 atomization_energy=-1753.26 smiles=C.C.C.C.C.C.C.H.H.H.H.H.H.H.H.H.H pbc="F F F"
C        0.99999962       0.00000000       0.00000000
C        2.44399905       0.00000000       0.00000000
C        3.63415853       0.00000000       0.00000000
C        5.06851790       0.00456000       0.05133998
C        5.83726779      -0.72752974      -1.02080957
C        5.84211759       0.77644971      -0.99119963
C        7.08339712       1.51199942      -0.61462973
H        0.60596979       1.02085959       0.01163999
H        0.60590973      -0.52054980       0.87822967
H        0.60601976      -0.50030980      -0.88995967
H        5.48813772      -0.02918999       1.05328959
H        5.28801783      -1.21295951      -1.81913930
H        6.73422718      -1.25826949      -0.72118973
H        5.29287774       1.29262944      -1.77225931
H        7.63081716       1.01407958       0.19122992
H        6.83407718       2.52492900      -0.28080990
H        7.75020719       1.59368940      -1.47850939
