20
Properties=species:S:1:pos:R:3 atomization_energy=-1913.05 smiles=C.C.N.C.C.C.C.H.H.H.H.H.H.H.H.H.H.H.H.H pbc="F F F"
C        1.38616939       2.08589924      -0.42861984
C        2.69522888       1.76468924       0.27576990
N        3.81751858       2.04230914      -0.61777978
C        5.13505816       1.67991931      -0.05529998
C        5.59140781       2.45789897       1.15588949
C        5.58037791       0.24216991      -0.17656993
C        6.19477777       1.28720949      -1.05930958
H        0.54083981       1.89129923       0.23968990
H        1.25657951       1.46910942      -1.32475954
H        1.34269953       3.13893876      -0.72725969
H        2.69290895       0.70973970       0.57095977
H        2.76581880       2.37151917       1.18439952
H        3.80392852       3.02225877      -0.89911967
H        6.64504726       2.26839921       1.39001946
H        5.00401799       2.17849913       2.03640925
H        5.47511793       3.53372868       0.98793964
H        4.90379808      -0.46994981      -0.63578973
H        6.19157771      -0.18038993       0.61203975
H        7.22468698       1.56921932      -0.87167965
H        5.93157760       1.27562950      -2.11120919
