19
Properties=species:S:1:pos:R:3 atomization_energy=-1783.46 smiles=C.N.C.C.C.C.N.H.H.H.H.H.H.H.H.H.H.H.H pbc="F F F"
C        2.30864907       0.23070991      -0.70274974
N        3.48209867       1.01581959      -1.04790957
C        4.53513807       0.85727967      -0.04571998
C        5.71687752       1.74030937      -0.38200984
C        6.79992718       1.24147950      -1.00962959
C        5.65537783       3.17520886       0.06813997
N        4.56697824       3.89946845      -0.57563976
H        1.54939933       0.35259987      -1.47970948
H        1.87404923       0.55270979       0.24795990
H        2.54948891      -0.83510966      -0.64335973
H        3.23791872       2.01118925      -1.06155962
H        4.85234823      -0.19231993      -0.00641000
H        4.16891836       1.11434958       0.95693961
H        6.83246731       0.20254993      -1.32530949
H        7.65982718       1.86039925      -1.24346951
H        6.59786737       3.69203853      -0.14773994
H        5.52149793       3.20861878       1.15570958
H        4.72965822       3.87707860      -1.58294942
H        4.62370836       4.88000829      -0.30620988
