11
Properties=species:S:1:pos:R:3 atomization_energy=-1159.21 smiles=O.C.C.C.C.N.H.H.H.H.H pbc="F F F"
O        1.02541960       0.03838999      -0.16806993
C        2.45014912       0.03617998       0.01122000
C        3.21528865      -0.71381970      -1.03885958
C        3.24408873       0.79329970      -1.02334960
C        4.44026808       1.46960941      -0.61339975
N        5.40584795       2.01351915      -0.27166989
H        0.57424980       0.50163980       0.56024977
H        2.83156901      -0.01919999       1.02715961
H        2.65172899      -1.20194953      -1.82594934
H        4.09806829      -1.26023944      -0.72637975
H        2.67930905       1.29648948      -1.80104929
