18
Properties=species:S:1:pos:R:3 atomization_energy=-1766.1 smiles=C.C.C.C.C.C.N.H.H.H.H.H.H.H.H.H.H.H pbc="F F F"
C        0.94969966       0.00552000       0.01617999
C        2.46981910       0.00920000       0.01613999
C        3.02738892       1.43281939       0.00000000
C        4.47138809       1.43281939       0.00000000
C        5.66154783       1.43281939       0.00000000
C        7.10554726       1.43281939       0.00000000
N        7.60657721       2.79955877       0.01817999
H        0.57328980      -1.02207962       0.02782999
H        0.55553981       0.50132982      -0.87704964
H        0.55553981       0.52143980       0.89795964
H        2.83100884      -0.54570981      -0.85803963
H        2.83100884      -0.52574981       0.90266965
H        2.65576907       1.98174926       0.87335967
H        2.65577891       1.96180929      -0.88558966
H        7.48718718       0.91895966      -0.88864962
H        7.48971706       0.89946965       0.87541964
H        7.23830731       3.29339880      -0.79276967
H        8.61820653       2.78353902      -0.08791997
