18
Properties=species:S:1:pos:R:3 atomization_energy=-1755.5 smiles=C.C.C.N.C.C.C.H.H.H.H.H.H.H.H.H.H.H pbc="F F F"
C        2.81741878      -0.47519981      -1.69621928
C        2.47020895       0.02641999      -0.29744988
C        3.02738892       1.43281939       0.00000000
N        2.50009910       1.84607932       1.30910945
C        2.77142888       3.24415863       1.61640931
C        4.47138809       1.43281939       0.00000000
C        5.66154783       1.43281939       0.00000000
H        2.33170912      -1.43933938      -1.87847928
H        3.89555858      -0.61944977      -1.81610931
H        2.47396894       0.22687991      -2.46145911
H        2.83786897      -0.70067974       0.43803984
H        1.37578950       0.04221998      -0.20797992
H        2.64688903       2.11611918      -0.76960970
H        2.90771880       1.25333945       2.03153926
H        2.38816900       3.90753851       0.83501964
H        3.84137852       3.43552867       1.75623930
H        2.26727911       3.51159872       2.54908896
H        6.72711749       1.43291944       0.00020000
