22
Properties=species:S:1:pos:R:3 atomization_energy=-2060.31 smiles=C.C.C.C.C.C.N.H.H.H.H.H.H.H.H.H.H.H.H.H.H.H pbc="F F F"
C        1.23750957      -0.71607971       1.65084937
C        2.72628884      -0.39941985       1.63866934
C        3.06736879       1.03377959       1.17213950
C        2.34499915       2.13531920       1.98034920
C        2.69074899       2.18219906       3.46206862
C        4.60321805       1.19595957       1.15923957
N        5.02567811       2.50452903       0.67170972
H        1.08360958      -1.78023928       1.85589929
H        0.77752969      -0.48687981       0.68484974
H        0.71434973      -0.15461994       2.42966916
H        3.21770876      -1.11322961       0.96481960
H        3.14039875      -0.58610975       2.63693885
H        2.71737902       1.12698962       0.13386995
H        1.26046945       2.01388919       1.87592923
H        2.56672894       3.11584869       1.54088933
H        2.45030910       1.24061956       3.96303852
H        2.11435917       2.97394894       3.95218852
H        3.75025842       2.40081911       3.62022859
H        5.04587824       0.42836985       0.51416979
H        5.01423792       1.04093961       2.16366912
H        4.69761821       2.63642889      -0.28465988
H        6.04290767       2.53974892       0.63474975
