19
Properties=species:S:1:pos:R:3 atomization_energy=-1776.93 smiles=C.N.C.C.C.C.N.H.H.H.H.H.H.H.H.H.H.H.H pbc="F F F"
C        2.68663902      -0.91788964      -0.58122979
N        3.50179868       0.23426991      -0.94154961
C        3.27078866       1.34506943      -0.01284999
C        4.08037836       2.57574902      -0.43781984
C        3.91167851       3.70729852       0.53235978
C        3.86896841       5.12926817       0.03482999
N        2.66729884       4.47209815       0.53886980
H        2.87990887      -1.73551937      -1.28290951
H        1.61740942      -0.68309976      -0.62576978
H        2.93209879      -1.27988949       0.42280982
H        3.25426878       0.53288980      -1.88486920
H        3.56412854       1.04986962       1.00259958
H        2.20475924       1.60332934       0.01268999
H        3.78258861       2.88238878      -1.44783941
H        5.14710798       2.32003905      -0.48656980
H        4.36927822       3.50978850       1.49533938
H        3.88939841       5.31553809      -1.03293958
H        4.29105855       5.91223742       0.65275976
H        2.44396902       4.79739806       1.48134938
