15
Properties=species:S:1:pos:R:3 atomization_energy=-1429.78 smiles=C.N.C.C.C.O.H.H.H.H.H.H.H.H.H pbc="F F F"
C        1.02327958      -0.04974998      -0.02695999
N        2.48151894      -0.01290000      -0.02357999
C        2.96449888       1.37331943      -0.04075998
C        4.48729809       1.39054949       0.01301999
C        5.03151806       2.79483892      -0.00013000
O        4.34988807       3.80787851      -0.12019995
H        0.68663972      -1.09034960      -0.00620000
H        0.61312976       0.41964984      -0.92653962
H        0.61242979       0.44740981       0.85714966
H        2.82431877      -0.50317981      -0.84983969
H        2.56454905       1.92037927       0.82240970
H        2.61633903       1.88367920      -0.94754961
H        4.91583831       0.86196963      -0.84578964
H        4.84669804       0.90610962       0.92822961
H        6.12921757       2.86935890       0.08954997
