20
Properties=species:S:1:pos:R:3 atomization_energy=-1916.73 smiles=C.C.N.C.C.C.C.H.H.H.H.H.H.H.H.H.H.H.H.H pbc="F F F"
C        3.31706873      -1.73419930       0.56041977
C        2.80061882      -0.45070984      -0.09425997
N        1.33596948      -0.42785982      -0.00144000
C        3.37213877       0.81771969       0.57000975
C        4.84236803       1.01203961       0.30955989
C        5.31198779       1.89199919      -0.82015966
C        5.47286764       2.34916918       0.60351978
H        4.39553833      -1.84907929       0.41358983
H        2.83926890      -2.61808895       0.12419995
H        3.11939873      -1.74245936       1.63829942
H        3.07442876      -0.46036983      -1.15543959
H        1.05298956      -0.44020983       0.97853960
H        0.95395964      -1.27764954      -0.41505984
H        3.20931874       0.77922971       1.65477930
H        2.82267888       1.69452929       0.20377991
H        5.43667779       0.14198994       0.56303979
H        4.57263803       2.39791907      -1.43161943
H        6.20299772       1.59499938      -1.36053948
H        6.47094727       2.35537905       1.02600961
H        4.83952830       3.15681870       0.95362965
