16
Properties=species:S:1:pos:R:3 atomization_energy=-1605.88 smiles=C.N.C.C.C.C.C.H.H.H.H.H.H.H.H.H pbc="F F F"
C        1.18501949      -0.16121994       0.00261000
N        2.64397889      -0.11756996      -0.03953998
C        3.19796863      -0.55338976      -1.31706949
C        3.16794878       0.91362966      -0.94078965
C        4.42526850       1.63077931      -0.55450980
C        4.98725815       2.09808924      -1.82808924
C        5.45589786       2.48469907      -2.86489894
H        0.81841965       0.55601981       0.74424971
H        0.85748968      -1.15817953       0.31493988
H        0.69792971       0.06690998      -0.95341965
H        2.52294896      -0.90078966      -2.08972912
H        4.14166836      -1.08326957      -1.26490946
H        2.44778907       1.56355940      -1.42723946
H        5.13234812       0.97608959      -0.03422998
H        4.19109828       2.47501914       0.10151996
H        5.87366758       2.82771894      -3.78358860
