20
Properties=species:S:1:pos:R:3 atomization_energy=-1916.97 smiles=C.C.C.N.C.C.C.H.H.H.H.H.H.H.H.H.H.H.H.H pbc="F F F"
C        1.11969952       0.25836989       0.04863998
C        2.63087886      -0.02069999       0.02043999
C        3.00024892      -0.90255963       1.21993949
N        2.96496872      -0.75592969      -1.20512954
C        3.39020871       1.28920947      -0.06978997
C        3.97119840       2.00025927       1.13114955
C        4.88780785       1.37359951       0.11634995
H        0.80008968       0.84020966      -0.82367969
H        0.84959966       0.83739969       0.93875964
H        0.53811981      -0.67031975       0.06152998
H        2.75026889      -0.41206984       2.16664915
H        4.06793843      -1.14456953       1.24397947
H        2.45268909      -1.85274932       1.19794958
H        2.65157885      -0.22717992      -2.01752920
H        2.45210898      -1.63603941      -1.22680947
H        2.97945884       1.92630918      -0.85023970
H        3.92363850       1.54434943       2.11174919
H        3.90850847       3.08283871       1.15401959
H        5.43911783       2.02853917      -0.54887978
H        5.43314767       0.47958981       0.39256984
