8
Properties=species:S:1:pos:R:3 atomization_energy=-850.55 smiles=S.C.C.C.N.H.H.H pbc="F F F"
S       -0.39487984      -1.16576952       0.00457000
C       -1.30600943       0.28429989      -0.02353999
C       -0.43448982       1.35259949      -0.04074998
C        0.91132966       0.88666964      -0.02932999
N        1.09393952      -0.43027983      -0.00526000
H       -2.38632899       0.28004988      -0.02591999
H       -0.73660970       2.39055908      -0.06007998
H        1.79771928       1.50855939      -0.03847998
