15
Properties=species:S:1:pos:R:3 atomization_energy=-1521.81 smiles=C.N.C.C.C.C.N.H.H.H.H.H.H.H.H pbc="F F F"
C        2.91392893      -1.09932957      -0.48458982
N        2.35348909       0.08522997       0.15648993
C        3.31095878       1.20165948       0.19312993
C        3.43331875       2.09658912      -1.00749960
C        2.78706888       2.61903897       0.24983990
C        3.48646855       3.58278869       1.04845959
N        4.05928851       4.35821853       1.69538936
H        2.16363909      -1.89564929      -0.50253981
H        3.78967862      -1.46840945       0.05896998
H        3.20034862      -0.88964967      -1.52014934
H        2.05799922      -0.16459993       1.10194952
H        4.22966837       0.99418963       0.74125972
H        2.79112889       1.90657927      -1.86020924
H        4.42354811       2.44837902      -1.27482949
H        1.71009927       2.74832897       0.22088992
