18
Properties=species:S:1:pos:R:3 atomization_energy=-1759.37 smiles=C.N.C.C.C.C.C.H.H.H.H.H.H.H.H.H.H.H pbc="F F F"
C        1.15213960       0.03744998      -0.07667997
N        2.60612895      -0.07882997      -0.04606998
C        3.16052873      -0.75493973      -1.20566953
C        3.27639874       0.75069968      -1.05294957
C        4.57302814       1.44685948      -0.65064977
C        5.92776791       1.02765961      -1.17464957
C        5.33584773       2.33205910      -1.61060934
H        0.83997965       0.90081962       0.52049980
H        0.70377970      -0.85508969       0.37239987
H        0.72741973       0.15394993      -1.08162954
H        2.48727891      -1.14551956      -1.95777918
H        4.03825846      -1.36057947      -1.01951959
H        2.62997905       1.34810951      -1.69331937
H        4.56693837       1.79850933       0.38299986
H        5.97585770       0.22529991      -1.90116929
H        6.76127709       1.04816960      -0.48181982
H        5.76906769       3.24488862      -1.21882949
H        4.98074801       2.41070899      -2.63118898
