17
Properties=species:S:1:pos:R:3 atomization_energy=-1685.95 smiles=N.C.C.C.C.C.N.H.H.H.H.H.H.H.H.H.H pbc="F F F"
N        1.17314958       0.05802997       0.57178976
C        2.36747909       0.03668998       0.08451997
C        3.05898887      -1.30399949      -0.06585998
C        4.06718850      -1.29638943      -1.20615956
C        4.95779798      -0.06140997      -1.12407960
C        4.11305828       1.20239957      -1.21268951
N        3.03545872       1.18469954      -0.23983991
H        0.84832968       1.02192960       0.65309972
H        2.31206917      -2.09002914      -0.22509990
H        3.56580856      -1.51649937       0.88296964
H        4.67826793      -2.20480921      -1.16623949
H        3.53830849      -1.30300947      -2.16694917
H        5.51741773      -0.07300997      -0.18026993
H        5.69169788      -0.07403997      -1.93739926
H        4.74053824       2.08307918      -1.04146957
H        3.68338862       1.29676944      -2.21672908
H        2.48709900       2.03578915      -0.22135991
