19
Properties=species:S:1:pos:R:3 atomization_energy=-1924.31 smiles=C.C.C.C.C.C.C.H.H.H.H.H.H.H.H.H.H.H.H pbc="F F F"
C        1.00463961      -0.04857998       0.28346988
C        2.37689912       0.12818995      -0.28180989
C        3.16908881       1.20082956      -0.12482995
C        2.82345883       2.48710909       0.56634975
C        3.51560852       3.50778852      -0.32481988
C        4.82230820       2.83509887      -0.72143973
C        4.51081838       1.33917951      -0.79632969
H        0.90072967      -1.05871963       0.69210975
H        0.25656990       0.07795996      -0.50572981
H        0.78402968       0.65551977       1.09080961
H        2.74073884      -0.70594975      -0.87852963
H        3.25372879       2.49750892       1.57368937
H        1.74981936       2.68632891       0.63319974
H        2.90560881       3.70492862      -1.21692956
H        3.68060843       4.46145836       0.18622993
H        5.20105792       3.21802871      -1.67445937
H        5.58918780       3.02073873       0.03674999
H        4.47275825       1.00010964      -1.83647925
H        5.27872800       0.76732970      -0.26380990
