19
Properties=species:S:1:pos:R:3 atomization_energy=-1772.5 smiles=C.N.C.C.C.C.N.H.H.H.H.H.H.H.H.H.H.H.H pbc="F F F"
C        2.24384914      -0.47293980      -1.38053951
N        2.29373907       0.11515995      -0.04707998
C        3.20840883       1.25931944      -0.04832998
C        2.45829891       2.53817892      -0.49689980
C        3.17790880       3.26489874       0.66971971
C        3.22289871       1.89120927       1.37728948
N        4.53169829       1.70076932       1.99904921
H        1.53911935      -1.31033944      -1.38203949
H        3.22310865      -0.85667969      -1.68551930
H        1.89566923       0.24906991      -2.12635917
H        2.55788901      -0.60854975       0.62105977
H        4.18738825       1.10448961      -0.51841981
H        1.36707940       2.51977892      -0.38440986
H        2.70355884       2.90525882      -1.49723943
H        4.14559842       3.69160856       0.37716984
H        2.58999892       4.03820851       1.17195959
H        2.36259900       1.68903932       2.02473919
H        5.32673806       1.91445920       1.39834942
H        4.68135798       0.75171973       2.33709917
