13
Properties=species:S:1:pos:R:3 atomization_energy=-1355.35 smiles=C.N.C.C.C.C.N.H.H.H.H.H.H pbc="F F F"
C        1.01580962      -0.02645999       0.04080998
N        2.47156902       0.01085000       0.01891999
C        2.96069877       1.38567949       0.00000000
C        4.40469846       1.38567949       0.00000000
C        5.59485769       1.38567949       0.00000000
C        7.12897723       1.38198940       0.00074000
N        8.29014663       1.38536951      -0.00499000
H        0.67835972      -1.06740954       0.05795998
H        0.58789978       0.45141983      -0.84651964
H        0.62016973       0.46215981       0.93712965
H        2.80586882      -0.47372982      -0.81336968
H        2.59557898       1.92607918       0.88111968
H        2.58806909       1.90972925      -0.88793963
