12
Properties=species:S:1:pos:R:3 atomization_energy=-1297.64 smiles=C.C.C.C.C.C.H.H.H.H.H.H pbc="F F F"
C        0.99999962       0.00000000       0.00000000
C        2.44399905       0.00000000       0.00000000
C        3.63415853       0.00000000       0.00000000
C        5.07815797       0.00000000       0.00000000
C        5.56017779       1.36116943       0.00000000
C        5.95745771       2.48306901       0.00000000
H        0.60601976       1.02088962       0.01167999
H        0.60591977      -0.52050980       0.87825963
H        0.60591977      -0.50027980      -0.88993967
H        5.45587767      -0.53458982      -0.87853966
H        5.45587767      -0.53458982       0.87853966
H        6.30708739       3.48886872       0.00000000
