15
Properties=species:S:1:pos:R:3 atomization_energy=-1493.1 smiles=C.N.C.C.N.C.C.H.H.H.H.H.H.H.H pbc="F F F"
C        0.98109963      -0.07128997       0.19844992
N        2.43191894       0.03949999       0.14264994
C        3.14169876      -1.21554956      -0.08675996
C        3.02864880       1.24655956      -0.13304995
N        2.52614903       2.42652915      -0.13965994
C        4.42899846       1.31590952      -0.47767982
C        5.59291777       1.37891941      -0.76626972
H        0.56012978       0.66324975       0.89279965
H        0.66044975      -1.05667959       0.55321975
H        0.54853977       0.09117996      -0.79419970
H        2.60166899      -2.06721916       0.34112987
H        4.12816838      -1.20512954       0.38867984
H        3.26329871      -1.39514948      -1.16010948
H        1.54303945       2.38461894       0.11896995
H        6.62407752       1.45394948      -1.02215961
