20
Properties=species:S:1:pos:R:3 atomization_energy=-1915.38 smiles=C.N.C.C.C.C.C.H.H.H.H.H.H.H.H.H.H.H.H.H pbc="F F F"
C        1.05041957      -0.08508996       0.39277984
N        2.49732901       0.07702997       0.43295984
C        2.92977886       1.45235942       0.15695995
C        2.45834913       2.44624909       1.22158949
C        4.43699837       1.45089943       0.11857995
C        5.17458787       1.84502924      -0.93239963
C        6.66839749       1.84264925      -0.94677962
H        0.80486965      -1.14853959       0.47965980
H        0.62564973       0.27925989      -0.54804980
H        0.56389980       0.42160983       1.23138953
H        2.90931883      -0.52741980      -0.27867987
H        2.53944890       1.76873929      -0.81910965
H        2.74287886       2.12436928       2.23021922
H        1.37065947       2.57006904       1.19994956
H        2.89722888       3.43660865       1.05270960
H        4.93546817       1.10495958       1.02304958
H        4.68415835       2.19345909      -1.83907927
H        7.09123705       1.48350946      -0.00313000
H        7.04068703       2.85650893      -1.12288961
H        7.03280723       1.19712950      -1.75159931
