15
Properties=species:S:1:pos:R:3 atomization_energy=-1513.2 smiles=C.N.C.C.C.C.N.H.H.H.H.H.H.H.H pbc="F F F"
C        0.99861962      -0.02177999       0.09932996
N        2.44468893      -0.03427999       0.30515987
C        3.05210880       1.22989951      -0.14400994
C        4.54767843       1.19289955      -0.01715999
C        5.20293779       0.03138999       0.09265997
C        4.35816807      -1.18007948      -0.00200000
N        3.06322879      -1.22621951       0.05673998
H        0.54480980       0.88591965       0.51163979
H        0.53377978      -0.87158963       0.61140974
H        0.74962974      -0.08787997      -0.96545963
H        2.67371891       2.05131913       0.47554983
H        2.79559894       1.44147940      -1.18883954
H        5.08603777       2.13358921      -0.01594000
H        6.27463759      -0.06651998       0.18057993
H        4.91064786      -2.12054924      -0.16159994
