8
Properties=species:S:1:pos:R:3 atomization_energy=-852.42 smiles=S.C.C.N.C.H.H.H pbc="F F F"
S       -0.49563981      -1.39825947      -0.00178000
C       -1.29848946       0.11833995      -0.00119000
C       -0.36940987       1.13653959      -0.00095000
N        0.95324964       0.73886970      -0.00123000
C        1.00996961      -0.57475976      -0.00167000
H       -2.37665916       0.18920993      -0.00104000
H       -0.60365976       2.19356911      -0.00057000
H        1.94906921      -1.11323958      -0.00196000
