13
Properties=species:S:1:pos:R:3 atomization_energy=-1303.4 smiles=C.N.C.C.C.O.H.H.H.H.H.H.H pbc="F F F"
C        1.01230960      -0.03375998      -0.28150990
N        2.44550900       0.00264000      -0.08514996
C        3.19431866       1.15090961      -0.01294000
C        4.52679802       1.22885953      -0.07930997
C        5.19637819       2.53871891       0.01783999
O        6.41428730       2.64082904      -0.06430998
H        0.65169972      -1.06197962      -0.18641992
H        0.75226969       0.33273986      -1.27920946
H        0.50059979       0.57790980       0.46760981
H        2.94968881      -0.83693969      -0.36403985
H        2.58589905       2.04547918       0.11596995
H        5.16566796       0.36441986      -0.20178992
H        4.54347812       3.41479865       0.16506993
