13
Properties=species:S:1:pos:R:3 atomization_energy=-1401.89 smiles=N.C.C.C.C.N.C.H.H.H.H.H.H pbc="F F F"
N        0.99999962       0.00000000       0.00000000
C        2.15100915       0.00000000       0.00000000
C        3.55700851       0.00000000       0.00000000
C        4.33360816      -1.08430955      -0.05877998
C        5.76639752      -0.69563974      -0.05763998
N        5.78441751       0.77677970      -0.14134994
C        4.38824848       1.22947951       0.04490998
H        3.98948839      -2.10835912      -0.09513996
H        6.25560778      -1.02512961       0.86416964
H        6.29391772      -1.13290956      -0.91118962
H        6.08087747       1.03733960      -1.08200955
H        4.11383849       1.93615918      -0.74570970
H        4.29360811       1.73230934       1.01354962
