19
Properties=species:S:1:pos:R:3 atomization_energy=-1900.09 smiles=C.C.C.C.C.C.C.H.H.H.H.H.H.H.H.H.H.H.H pbc="F F F"
C        2.06171922      -0.41913985       1.55827937
C        2.54406909       0.13034995       0.43611982
C        3.26460881       1.44756941       0.38543984
C        4.67528840       1.29853954      -0.19125992
C        5.38426808       2.62123905      -0.26007989
C        6.38301740       3.01090891       0.79836966
C        6.85437723       2.66045889      -0.58586978
H        1.54336937      -1.37260949       1.53089941
H        2.16872912       0.06608997       2.52316899
H        2.40407898      -0.39178986      -0.50836980
H        3.31878862       1.90314921       1.38196947
H        2.68180890       2.13562906      -0.23951991
H        4.61725827       0.88322967      -1.20487948
H        5.25046792       0.58459979       0.41262983
H        4.76921821       3.40003878      -0.69800970
H        6.60253752       2.31146912       1.59759940
H        6.42612769       4.05152831       1.09992961
H        7.20975704       3.46421873      -1.22072954
H        7.38151691       1.72323929      -0.72223975
