15
Properties=species:S:1:pos:R:3 atomization_energy=-1525.31 smiles=C.N.N.C.C.C.C.H.H.H.H.H.H.H.H pbc="F F F"
C        2.80585898      -1.02273959       0.54269981
N        2.68204886      -0.10234996      -0.57939975
N        3.31101858       1.12956958      -0.29371989
C        2.66088887       2.24898913       0.13703994
C        3.59361849       3.25519862       0.27340991
C        4.84879794       2.71829903      -0.10698996
C        4.63876800       1.40157939      -0.46327981
H        2.27980912      -1.95358922       0.30843989
H        2.35220902      -0.61062978       1.45074942
H        3.85198854      -1.27273956       0.74957971
H        3.06922872      -0.52890978      -1.41764949
H        1.59401932       2.23658906       0.31082988
H        3.38992863       4.26567857       0.60317976
H        5.79877768       3.23521878      -0.12591995
H        5.32622785       0.64572975      -0.81500971
