17
Properties=species:S:1:pos:R:3 atomization_energy=-1600.11 smiles=C.C.C.C.C.H.H.H.H.H.H.H.H.H.H.H.H pbc="F F F"
C        0.99781961      -0.06723997       0.01305999
C        2.51779913      -0.03169999       0.02454999
C        3.04392873       1.40283941      -0.01244999
C        4.57177809       1.43517944      -0.01301999
C        5.10046809       2.86016899      -0.04688998
H        0.64268973      -1.10241962       0.04218999
H        0.60089976       0.40232985      -0.89278962
H        0.58606975       0.45760983       0.88111968
H        2.89645877      -0.58976975      -0.83951966
H        2.88266887      -0.53890979       0.92428965
H        2.66504906       1.95586928       0.85581968
H        2.66614897       1.91075926      -0.90824964
H        4.95570817       0.88822968      -0.88283963
H        4.95593829       0.93000962       0.88223965
H        4.75804801       3.38357871      -0.94500964
H        6.19434780       2.85871885      -0.05049998
H        4.76393792       3.42360854       0.82896968
