21
Properties=species:S:1:pos:R:3 atomization_energy=-1933.52 smiles=C.C.C.C.N.C.N.H.H.H.H.H.H.H.H.H.H.H.H.H.H pbc="F F F"
C        1.01430958       0.49876979      -0.87392962
C        2.50385909       0.35093985      -0.59997976
C        3.19864866       1.71541930      -0.55795979
C        4.69945820       1.63517934      -0.20815991
N        5.45340785       0.89984966      -1.24132949
C        5.30244815       3.05379892      -0.03293999
N        5.41982811       3.78315863      -1.30309955
H        0.53560981      -0.48479982      -0.90608963
H        0.84062966       0.99255963      -1.83496930
H        0.52746979       1.08854960      -0.09100996
H        2.93969876      -0.27876989      -1.38301942
H        2.64505887      -0.16841993       0.35488985
H        2.69711884       2.33965907       0.19258992
H        3.06034868       2.21884917      -1.52371945
H        4.81540795       1.10254957       0.74351972
H        5.20834777       1.30340954      -2.14790927
H        5.12507795      -0.06418997      -1.27551949
H        6.30376772       2.96727881       0.40655984
H        4.69261801       3.63923847       0.66386972
H        6.05325779       3.24370872      -1.89553928
H        5.89572789       4.66721834      -1.12864958
