19
Properties=species:S:1:pos:R:3 atomization_energy=-1810.76 smiles=C.C.C.N.C.C.N.H.H.H.H.H.H.H.H.H.H.H.H pbc="F F F"
C        0.86443964      -0.23963991      -0.20675992
C        2.38826917      -0.18962992      -0.14537995
C        2.99681873      -1.23660951      -1.07621956
N        2.85531893       1.12896953      -0.54870978
C        2.73531902       2.27221900       0.19975991
C        2.74820886       3.58694862      -0.54566981
N        2.62232887       2.31525914       1.48248941
H        0.41881983       0.48118981       0.48760981
H        0.49443982      -1.23498954       0.06119998
H        0.49761979       0.00185000      -1.21124958
H        2.72052888      -0.41790983       0.87304968
H        2.70373901      -1.06610953      -2.11859922
H        2.67493892      -2.24447921      -0.79347967
H        4.09131843      -1.20590950      -1.03192962
H        2.82850899       1.27798943      -1.55355939
H        3.71558861       3.71286847      -1.03968956
H        2.58221905       4.42376814       0.13813995
H        1.95852923       3.58257849      -1.30220945
H        2.66272887       1.37253947       1.86716929
