15
Properties=species:S:1:pos:R:3 atomization_energy=-1546.79 smiles=C.C.C.N.C.C.N.H.H.H.H.H.H.H.H pbc="F F F"
C        2.14826909      -0.66081973       1.33311953
C        2.62728894      -0.17909993      -0.02919999
C        3.00429884       1.29355953      -0.01705999
N        1.94928924       2.18502921      -0.06356997
C        4.30673842       1.63645942       0.00000000
C        4.77606799       2.96180878       0.00000000
N        5.16028775       4.04679837       0.00000000
H        1.90020930      -1.72693935       1.29024945
H        1.25181953      -0.12160995       1.65857940
H        2.92318872      -0.52535980       2.09610919
H        1.84253924      -0.34844988      -0.77605967
H        3.47957864      -0.79478971      -0.34128985
H        1.07357954       1.84261923       0.32547988
H        2.16031917       3.14348880       0.21440992
H        5.07006823       0.86632966       0.02005999
