9
Properties=species:S:1:pos:R:3 atomization_energy=-1032.07 smiles=O.C.C.C.C.N.H.H.H pbc="F F F"
O        0.99438960      -0.07324997      -0.09117996
C        2.21523906      -0.03222999      -0.01970999
C        2.93621886       1.25305949      -0.04244998
C        4.27185816       1.27368946       0.03697998
C        4.99642787       2.49546908       0.01772999
N        5.59189784       3.48910869       0.00244000
H        2.83046885      -0.94350965       0.06429997
H        2.32656913       2.14669909      -0.12521995
H        4.85667824       0.36432984       0.11905996
