11
Properties=species:S:1:pos:R:3 atomization_energy=-1147.2 smiles=N.C.C.C.C.S.H.H.H.H.H pbc="F F F"
N        0.92385961       0.09068997      -0.10485996
C        2.26805906       0.02096999      -0.05570998
C        3.15394868       1.07528959      -0.02187999
C        4.51280827       0.64503975       0.02315999
C        4.61559793      -0.72762973       0.02357999
S        3.08116878      -1.48304946      -0.02911999
H        0.43804984       0.95708962       0.10201997
H        0.37997984      -0.74859972       0.06489997
H        2.84523880       2.11253911      -0.03423999
H        5.36747796       1.30813949       0.05076998
H        5.51504784      -1.32661947       0.05049998
