14
Properties=species:S:1:pos:R:3 atomization_energy=-1322.48 smiles=C.C.C.C.N.H.H.H.H.H.H.H.H.H pbc="F F F"
C        0.99961961      -0.03525998       0.04520998
C        2.51021910       0.05464998       0.01390999
C        3.17062879       1.09826952       0.94194962
C        4.19546841      -0.01348000       1.22349951
N        3.15589870      -0.99571958       0.84335969
H        0.64945972      -0.90319967      -0.52402979
H        0.55477979       0.85814965      -0.40539984
H        0.61245975      -0.12151995       1.06695963
H        2.90074890       0.08913997      -1.01239962
H        2.57408894       1.38442944       1.81599929
H        3.55830851       1.99731923       0.45788983
H        5.06241805      -0.00598000       0.55043976
H        4.54438803      -0.08739996       2.25619899
H        3.49831853      -1.80147927       0.32358989
