14
Properties=species:S:1:pos:R:3 atomization_energy=-1534.34 smiles=C.C.N.C.C.C.C.H.H.H.H.H.H.H pbc="F F F"
C        2.67616904      -1.18128954       0.29576989
C        2.23706900       0.07601997       0.14757994
N        3.01128892       1.23700945       0.08592997
C        2.50869905       2.51719909      -0.06849997
C        3.54752867       3.42070875      -0.08866997
C        4.73976812       2.68365899       0.05778998
C        4.38717809       1.35590945       0.16224993
H        1.97125922      -2.00666924       0.32975986
H        3.72809843      -1.43022946       0.38661984
H        1.16737952       0.24821990       0.06293997
H        1.44208941       2.67696893      -0.15174993
H        3.45151865       4.49328843      -0.19732992
H        5.74927786       3.07294884       0.08490996
H        5.01030811       0.48185981       0.28552988
