14
Properties=species:S:1:pos:R:3 atomization_energy=-1327.3 smiles=C.C.C.C.N.H.H.H.H.H.H.H.H.H pbc="F F F"
C        1.03458957       0.01791999       0.16190994
C        2.52751893      -0.12261995       0.05239998
C        3.10959869      -1.33339949      -0.00091000
C        3.33053868       1.14765958      -0.03580998
N        3.27861875       1.89690931       1.21043948
H        0.75774969       0.50006980       1.10452961
H        0.52732978      -0.95227962       0.12644995
H        0.64846976       0.62161976      -0.66593972
H        2.52769910      -2.24807922       0.05446998
H        4.18696838      -1.44060949      -0.08252997
H        2.95472887       1.76674927      -0.85850967
H        4.37967830       0.92698965      -0.26408989
H        2.33313908       2.24395916       1.35505947
H        3.87028836       2.72079887       1.12529950
