19
Properties=species:S:1:pos:R:3 atomization_energy=-1897.95 smiles=C.C.C.C.C.C.C.H.H.H.H.H.H.H.H.H.H.H.H pbc="F F F"
C        1.03401962       0.03377999      -0.03436999
C        2.52141908      -0.05598998      -0.07289997
C        3.21210877      -0.71607971      -1.22959949
C        3.31274882       0.78362967      -1.05537958
C        4.59938817       1.49077937      -0.63744976
C        5.97556752       0.98782962      -1.00383960
C        5.45059789       2.23825899      -1.63788938
H        0.72518969       0.87532969       0.59263976
H        0.61363978      -0.88191963       0.39174986
H        0.60371976       0.17472993      -1.03065957
H        2.93967883      -0.21025992       0.91594965
H        2.61423888      -1.08707952      -2.05446923
H        4.08200842      -1.32482943      -1.01140960
H        2.71210883       1.37031946      -1.75301930
H        4.52595826       1.97146928       0.33967985
H        6.05929759       0.10574995      -1.62754935
H        6.76060740       1.08113951      -0.26204989
H        5.87835791       3.18536872      -1.33034943
H        5.16965782       2.19580906      -2.68393882
