17
Properties=species:S:1:pos:R:3 atomization_energy=-1640.35 smiles=C.N.N.C.C.C.C.H.H.H.H.H.H.H.H.H.H pbc="F F F"
C        3.76469858      -1.54600939      -0.88176962
N        4.93147831      -0.76100969      -0.49556982
N        4.71423826       0.56876979      -0.36494985
C        5.71781770       1.29953953       0.04944998
C        7.08127703       0.73131970       0.39396984
C        5.45170764       2.76484884       0.17368994
C        6.31524728       3.71291844       0.55624981
H        4.02338833      -2.60876909      -0.90241966
H        3.41115877      -1.25692949      -1.87656926
H        2.94988890      -1.41152944      -0.16338993
H        5.68443781      -0.95208961      -1.15999959
H        6.96975721      -0.05053998       1.15171959
H        7.77159681       1.47531941       0.78962966
H        7.53102722       0.29943990      -0.50547981
H        4.43304838       3.04719869      -0.08383997
H        7.34425717       3.51961856       0.82926964
H        5.98843742       4.74769788       0.60573979
