19
Properties=species:S:1:pos:R:3 atomization_energy=-1804.98 smiles=C.C.C.C.N.C.N.H.H.H.H.H.H.H.H.H.H.H.H pbc="F F F"
C        2.96504871      -1.16735959      -0.30722986
C        2.39058910      -0.02068999       0.51496980
C        3.06865870       1.32431947       0.21281992
C        2.35567907       2.45793909       0.94782963
N        4.45937814       1.28199948       0.63651972
C        5.42642809       2.06952925       0.10780996
N        6.61283718       2.19996924       0.58070979
H        2.41885903      -2.09199922      -0.09518996
H        4.01943834      -1.33991947      -0.07133997
H        2.87981878      -0.96197961      -1.37887942
H        2.48422898      -0.26532988       1.58062936
H        1.31792944       0.05528998       0.29782990
H        3.01354880       1.51342939      -0.86650964
H        2.39000899       2.31325916       2.03340916
H        1.30542945       2.51944913       0.64454973
H        2.82540885       3.42296863       0.72852973
H        4.63854796       0.86472963       1.54160936
H        5.12572796       2.62050905      -0.79958969
H        6.71981755       1.61023942       1.40721950
