19
Properties=species:S:1:pos:R:3 atomization_energy=-1783.97 smiles=C.C.N.C.C.C.N.H.H.H.H.H.H.H.H.H.H.H.H pbc="F F F"
C        1.19441947      -0.31609988      -0.03415998
C        2.71861898      -0.23352991      -0.11447996
N        3.16564878      -0.68735974      -1.43624946
C        3.19615866       1.20106953       0.18125993
C        4.69383828       1.31865943       0.18914992
C        5.42129769       1.91845928      -0.98548963
N        5.29049775       2.65338908       0.26955990
H        0.84207968      -0.01005999       0.95666961
H        0.84589966      -1.34022946      -0.20763992
H        0.71742974       0.33376988      -0.77653967
H        3.14538885      -0.91199967       0.63392974
H        2.78681882      -0.07097997      -2.15505907
H        2.78176892      -1.61237932      -1.62816933
H        2.82705884       1.49883946       1.17106949
H        2.75488882       1.90127931      -0.54044977
H        5.18144775       0.54316978       0.76770971
H        4.84385830       2.29697900      -1.81998928
H        6.40341737       1.53713944      -1.23264955
H        6.16558759       2.62555896       0.79625967
