18
Properties=species:S:1:pos:R:3 atomization_energy=-1761.44 smiles=C.C.C.C.N.C.C.H.H.H.H.H.H.H.H.H.H.H pbc="F F F"
C        1.00794963      -0.21959992       0.02990999
C        2.52246903      -0.03347999       0.02971999
C        3.02738892       1.43281939       0.00000000
C        2.51695912       2.18030910      -1.24085952
N        2.57732887       2.16312913       1.18734952
C        4.47138809       1.43281939       0.00000000
C        5.66154783       1.43281939       0.00000000
H        0.76784969      -1.28697949       0.06142998
H        0.55078980       0.19172993      -0.87467968
H        0.54141980       0.24759990       0.90215963
H        2.92808874      -0.57425976      -0.83582969
H        2.92630880      -0.54483977       0.91420964
H        2.79623885       1.65341936      -2.16125910
H        2.94304896       3.18978881      -1.30614948
H        1.42691938       2.28982920      -1.23761946
H        2.87859876       1.66147933       2.02098917
H        1.56160939       2.19234909       1.21621950
H        6.72678745       1.44215943       0.00374000
