21
Properties=species:S:1:pos:R:3 atomization_energy=-1936.69 smiles=C.C.N.C.C.C.N.H.H.H.H.H.H.H.H.H.H.H.H.H.H pbc="F F F"
C        0.83976965      -0.11947995      -0.00872000
C        2.36408902      -0.02290999       0.03624999
N        2.93211873      -0.88504968      -1.01910961
C        2.93821884       1.44005940      -0.05579998
C        2.40592908       2.21558905      -1.27210949
C        2.62944890       2.22924900       1.22622948
N        4.41171831       1.35304953      -0.21243991
H        0.37971984       0.47388980       0.78702971
H        0.51601979      -1.15721953       0.13393995
H        0.43334982       0.22014990      -0.96710963
H        2.69354886      -0.45423982       0.99079962
H        3.91994841      -0.61134975      -1.09227956
H        2.54214910      -0.60781976      -1.91912922
H        2.60833887       1.69192927      -2.21274906
H        2.86911893       3.20732886      -1.34425944
H        1.32480950       2.37560895      -1.20221953
H        3.00299883       1.70867927       2.11535916
H        1.55267939       2.38017918       1.35432948
H        3.09374876       3.22237865       1.20525949
H        4.80387792       0.86955963       0.59681975
H        4.81270800       2.29087914      -0.19940992
