16
Properties=species:S:1:pos:R:3 atomization_energy=-1658.95 smiles=C.C.C.C.C.C.N.H.H.H.H.H.H.H.H.H pbc="F F F"
C        1.29623955      -0.34100986      -0.45741983
C        2.78817889      -0.43380982      -0.17634993
C        3.42052858       0.95514963      -0.05169998
C        4.90236786       0.88088968       0.22789991
C        5.40061763       1.08704962       1.45935946
C        5.79278784       0.62137973      -0.86135968
N        6.51137730       0.41318985      -1.74746928
H        0.86132966      -1.34275946      -0.52899980
H        1.10732961       0.17993993      -1.40131949
H        0.77843972       0.19760993       0.34273987
H        3.26797870      -1.00044959      -0.98313960
H        2.94276887      -0.99954959       0.75057970
H        2.91365893       1.51268942       0.74688973
H        3.25144873       1.52831945      -0.97273964
H        4.75274804       1.29620952       2.30556911
H        6.46952766       1.04634959       1.65702933
