19
Properties=species:S:1:pos:R:3 atomization_energy=-1783.89 smiles=C.C.C.N.C.C.N.H.H.H.H.H.H.H.H.H.H.H.H pbc="F F F"
C        3.27692863      -0.89091966      -1.03603959
C        2.70345892      -0.27047990       0.23147991
C        3.24134866       1.14432957       0.51857978
N        2.54113902       1.69867938       1.68277936
C        4.74122811       1.14619959       0.73580974
C        5.43401771       1.99257919       1.77969929
N        5.30975768       0.54579976       1.94982923
H        2.79613892      -1.85641923      -1.23065953
H        4.35206822      -1.07210959      -0.94500964
H        3.10450867      -0.24587990      -1.90141922
H        2.91396879      -0.93986965       1.07653951
H        1.61249931      -0.23157992       0.12346995
H        3.02077885       1.79156934      -0.33868986
H        2.86140895       1.17161957       2.49966913
H        1.54388942       1.51561937       1.60460941
H        5.28178777       0.97619961      -0.18935993
H        4.84753830       2.60506891       2.45228914
H        6.42323749       2.37320903       1.56372935
H        6.19483733       0.07930997       1.73885936
