18
Properties=species:S:1:pos:R:3 atomization_energy=-1767.49 smiles=C.C.C.C.C.C.N.H.H.H.H.H.H.H.H.H.H.H pbc="F F F"
C        1.00100958      -0.05369998       0.00248000
C        2.51999896       0.00000000       0.00000000
C        3.00201878       1.36116943       0.00000000
C        3.39929870       2.48306901       0.00000000
C        3.88131852       3.84423844       0.00000000
C        4.92948792       4.05569834      -1.09140952
N        2.76046888       4.76003790      -0.19372993
H        0.65725972      -1.09299959       0.00189000
H        0.58549980       0.44237981      -0.88160964
H        0.58849976       0.44033984       0.88910962
H        2.89586882      -0.53280981      -0.88067968
H        2.89884885      -0.53402977       0.87864967
H        4.33947840       4.06926846       0.96966959
H        4.52085814       3.86207851      -2.08963916
H        5.78071783       3.38123859      -0.94822964
H        5.31149776       5.08179810      -1.07475957
H        2.31829897       4.55482799      -1.08828957
H        3.11067867       5.71286797      -0.26048990
