13
Properties=species:S:1:pos:R:3 atomization_energy=-1279.99 smiles=C.N.C.C.C.O.H.H.H.H.H.H.H pbc="F F F"
C        1.11047958       0.02690999      -0.14705995
N        2.55885898      -0.01421999       0.04219998
C        3.25595864      -0.75259967      -1.00488961
C        3.29315858       0.75693971      -0.96483959
C        4.50175818       1.44261943      -0.45978981
O        5.35528783       1.85740925      -1.23484949
H        0.70022971       0.90762966       0.35837987
H        0.65625972      -0.85886968       0.30815990
H        0.79250971       0.06479998      -1.19667947
H        2.67556900      -1.23317957      -1.78341929
H        4.13931839      -1.29877951      -0.69492975
H        2.73192895       1.29972954      -1.71622928
H        4.59037843       1.57295938       0.63266978
