18
Properties=species:S:1:pos:R:3 atomization_energy=-1762.49 smiles=C.N.C.C.C.C.C.H.H.H.H.H.H.H.H.H.H.H pbc="F F F"
C        1.34245944      -0.23621991       0.32544988
N        2.77856885      -0.00551000       0.41312982
C        3.13458882       1.30256952      -0.15175994
C        4.64341796       1.55404942      -0.03847998
C        5.01154807       2.85916875      -0.61233977
C        5.31852771       3.92313838      -1.07605958
C        5.69684797       5.22101783      -1.63694932
H        1.10416954      -1.21451955       0.75427969
H        0.99740963      -0.23082991      -0.71356970
H        0.78510972       0.51617979       0.89273966
H        3.26693884      -0.74011968      -0.09899996
H        2.59553886       2.09633919       0.38096986
H        2.83283900       1.34932941      -1.20614946
H        5.19405775       0.76169969      -0.56002980
H        4.94908800       1.51894939       1.01407958
H        4.91315805       5.60262798      -2.29810919
H        6.62091733       5.13931802      -2.21712902
H        5.85852771       5.95564748      -0.84242966
