11
Properties=species:S:1:pos:R:3 atomization_energy=-1151.04 smiles=C.C.C.N.C.S.H.H.H.H.H pbc="F F F"
C        0.88128962       0.08002997      -0.00790000
C        2.36556895       0.03633999      -0.00035000
C        3.27558875       1.07426954       0.00367000
N        4.60697830       0.70642974       0.01042999
C        4.69161827      -0.60557975       0.01132000
S        3.20472884      -1.45994942       0.00412000
H        0.52054980       1.11409953       0.00005000
H        0.47240982      -0.42359984       0.87412966
H        0.48237980      -0.40666983      -0.90395963
H        3.02218888       2.12782925       0.00195000
H        5.64180796      -1.12330961       0.01626999
