17
Properties=species:S:1:pos:R:3 atomization_energy=-1620.97 smiles=C.C.N.N.C.C.C.H.H.H.H.H.H.H.H.H.H pbc="F F F"
C        1.51727946       2.68585907       0.09214996
C        2.71755893       1.93244928       0.57255975
N        3.77628841       1.84379926      -0.16318994
N        4.75587796       1.12378955       0.44671981
C        6.00006787       1.89043928       0.76165969
C        6.58615718       1.44146943      -0.58228977
C        5.58157800       0.28691988      -0.47526980
H        0.65472971       2.01434919       0.09211997
H        1.67781929       3.07834873      -0.91519967
H        1.31881953       3.51081851       0.78082967
H        2.64546891       1.47274942       1.57540939
H        6.53379744       1.49799945       1.63562937
H        5.87542784       2.97076881       0.88831963
H        6.39115760       2.13194906      -1.41091943
H        7.64307693       1.16536958      -0.58125975
H        5.09892786      -0.01005999      -1.41199941
H        5.98432745      -0.61159974       0.00742999
