19
Properties=species:S:1:pos:R:3 atomization_energy=-1778.2 smiles=C.N.C.C.N.C.C.H.H.H.H.H.H.H.H.H.H.H.H pbc="F F F"
C        3.40576872      -0.64581977      -2.23591913
N        4.39442807       0.10131996      -1.46787943
C        3.78702863       1.29500943      -0.86620968
C        4.75710833       2.04247921       0.00836000
N        5.98339786       1.39274944       0.49432980
C        6.12178743       2.46313913      -0.48914982
C        6.70148720       3.76701851      -0.06193997
H        3.87280839      -1.54240938      -2.65490887
H        3.01257884      -0.05054998      -3.06653887
H        2.57393905      -0.97276961      -1.60376940
H        5.14037780       0.39336986      -2.09725919
H        2.93402888       0.99941964      -0.24361990
H        3.41681856       1.97201924      -1.64491933
H        4.25157830       2.68727893       0.71767974
H        6.01814741       0.46244983       0.06058997
H        6.44759755       2.17479920      -1.47973938
H        6.44753749       4.01692840       0.97384959
H        6.32867736       4.57040843      -0.70535973
H        7.79256705       3.74216842      -0.14809995
