15
Properties=species:S:1:pos:R:3 atomization_energy=-1650.27 smiles=C.C.C.C.C.C.C.H.H.H.H.H.H.H.H pbc="F F F"
C        0.86868965      -0.05647998      -0.00335000
C        2.21075918      -0.01221000      -0.01407000
C        2.95338874       1.31335946      -0.04021999
C        4.45545842       1.18790957      -0.01696999
C        5.08621793       0.00494000       0.00596000
C        4.33483853      -1.22615946       0.00884000
C        2.99450889      -1.23806949       0.00068000
H        0.27848990       0.85477964      -0.01338000
H        0.32269988      -0.99440960       0.01667000
H        2.64828896       1.91447926       0.82481965
H        2.67231897       1.86494929      -0.94595960
H        5.03180825       2.10755923      -0.02008999
H        6.17004780      -0.05401998       0.02233999
H        4.89416810      -2.15700909       0.02037999
H        2.46921906      -2.18885909       0.00658000
