14
Properties=species:S:1:pos:R:3 atomization_energy=-1379.89 smiles=C.C.N.N.C.C.N.H.H.H.H.H.H.H pbc="F F F"
C        0.85147965      -0.48683982       0.17886993
C        2.33113910      -0.18310993       0.01067999
N        2.51977892       1.22933947      -0.34485987
N        3.81379846       1.60415938      -0.52190980
C        3.93774836       2.61830898      -1.31012949
C        5.29879793       3.03927876      -1.51244946
N        6.38270753       3.41805877      -1.69997927
H        0.70978972      -1.54208942       0.43329983
H        0.29864988      -0.28527988      -0.74488969
H        0.41085985       0.11514996       0.98074958
H        2.74505901      -0.82078968      -0.77835967
H        2.86121894      -0.40975984       0.94269961
H        2.09065921       1.78800932       0.40071985
H        3.12247869       3.15826885      -1.81709933
