12
Properties=species:S:1:pos:R:3 atomization_energy=-1170.42 smiles=N.C.C.C.C.H.H.H.H.H.H.H pbc="F F F"
N        0.95950960      -0.03789998       0.00281000
C        2.42277900      -0.00829000       0.00592000
C        2.95957893       1.42658946       0.01258000
C        4.43168831       1.44369941      -0.01327999
C        5.63163800       1.46293941      -0.03395999
H        0.64582974      -1.00801959      -0.01500999
H        0.61098973       0.38698985      -0.85607965
H        2.79293886      -0.54824977      -0.87372965
H        2.78437903      -0.54621977       0.89003965
H        2.60283905       1.95390917       0.90545961
H        2.57614897       1.97256920      -0.85788969
H        6.69753721       1.48286942      -0.05028998
