15
Properties=species:S:1:pos:R:3 atomization_energy=-1490.57 smiles=C.N.C.N.C.C.C.H.H.H.H.H.H.H.H pbc="F F F"
C        1.02973957      -0.28104989      -0.47251980
N        2.32136909       0.02024999       0.09160997
C        2.93794884       1.23675952       0.00169000
N        2.57077910       2.45065908      -0.10569996
C        1.16154954       2.78171895      -0.09372996
C        4.38393815       1.18870959       0.04150998
C        5.58337763       1.14100952       0.07537997
H        0.85449968      -1.36076948      -0.42973984
H        0.97742960       0.02581999      -1.52151938
H        0.22632991       0.19913992       0.09141996
H        2.96309895      -0.76575970       0.05754998
H        1.05268960       3.86880844      -0.02229999
H        0.64794976       2.35481913       0.77334969
H        0.66823972       2.46865913      -1.01860962
H        6.64769724       1.11721960       0.10667996
