17
Properties=species:S:1:pos:R:3 atomization_energy=-1667.49 smiles=C.C.N.C.C.C.N.H.H.H.H.H.H.H.H.H.H pbc="F F F"
C        1.04858960       0.03146999       0.26125990
C        2.54421897      -0.10426996       0.01742999
N        3.22599885       1.11023961       0.46481982
C        4.68611796       1.05163959       0.24245990
C        5.25017774       2.45544909       0.47004983
C        5.38572806       0.08932997       1.12873953
N        5.92192744      -0.66739971       1.83009931
H        0.52681979      -0.86479965      -0.08944996
H        0.63573977       0.89297963      -0.27449988
H        0.82986969       0.15289994       1.32763952
H        2.71517895      -0.26034990      -1.05368960
H        2.91068874      -0.98605958       0.55423980
H        3.04047885       1.26467947       1.45702944
H        4.88007793       0.78380971      -0.80366969
H        5.09410782       2.79398882       1.50146939
H        4.77860796       3.18249870      -0.20086992
H        6.32907756       2.47784903       0.27701988
