13
Properties=species:S:1:pos:R:3 atomization_energy=-1411.44 smiles=C.C.N.C.C.N.C.H.H.H.H.H.H pbc="F F F"
C        2.70823883      -1.16966956       0.30693987
C        2.24535909       0.07873997       0.15756994
N        2.99911873       1.25079948       0.09258997
C        2.49493893       2.52564891      -0.06188998
C        3.57679859       3.37163865      -0.07470997
N        4.73979790       2.67064904       0.06626997
C        4.36803826       1.41294944       0.16359993
H        2.01775920      -2.00800924       0.34382985
H        3.76380861      -1.40394941       0.39630983
H        1.17219955       0.23227991       0.07488997
H        1.43428947       2.71341894      -0.14706995
H        3.57692854       4.44932829      -0.17826994
H        5.04216796       0.57677979       0.28661989
