11
Properties=species:S:1:pos:R:3 atomization_energy=-1153.43 smiles=C.C.C.C.C.H.H.H.H.H.H pbc="F F F"
C        1.74803929      -0.62173974       1.05444962
C        2.47563912      -0.09213997       0.06149998
C        3.15491865       1.24442950       0.12348996
C        4.60491826       1.07532959      -0.03926999
C        5.79158775       0.94323960      -0.17169994
H        1.28096947      -1.59534936       0.94101965
H        1.60729939      -0.10513996       1.99880925
H        2.58468887      -0.65177978      -0.86556964
H        2.94333889       1.75130925       1.07198960
H        2.75980903       1.88057931      -0.67643973
H        6.84423755       0.82272966      -0.28762988
