18
Properties=species:S:1:pos:R:3 atomization_energy=-1767.71 smiles=N.C.C.C.C.C.C.H.H.H.H.H.H.H.H.H.H.H pbc="F F F"
N        0.80728970      -0.05161998      -0.56391980
C        2.20156902      -0.00923000      -0.08335997
C        3.21979882      -0.73030974      -0.94518961
C        3.18332862       0.76790968      -0.93862963
C        2.37832909      -0.01312999       1.45887940
C        1.52135940       0.80653971       2.39593903
C        1.41013948      -0.69011974       2.40092914
H        0.76658967      -0.01962999      -1.58034940
H        0.30763987       0.77283967      -0.23662991
H        2.87424883      -1.25062954      -1.83059930
H        4.04799845      -1.22319949      -0.44909984
H        3.99012855       1.29181946      -0.43857983
H        2.82285879       1.27193954      -1.82712924
H        3.42431860      -0.08913997       1.76442934
H        0.69400975       1.37306949       1.98780925
H        2.00878920       1.28284946       3.23867875
H        1.82237923      -1.23239948       3.24342863
H        0.51697981      -1.13869955       1.98142918
