18
Properties=species:S:1:pos:R:3 atomization_energy=-1775.71 smiles=C.C.C.C.N.C.C.H.H.H.H.H.H.H.H.H.H.H pbc="F F F"
C        0.98358964       0.74777971      -1.57009933
C        2.46552896       0.67008975      -1.38889949
C        3.11846890       1.21198955      -0.34448986
C        4.59942804       1.19764956      -0.04854998
N        5.37686770       0.41894984      -1.00440961
C        5.22937807       2.56438907       0.03915999
C        4.67413828       3.76097846      -0.20574991
H        0.75101970       1.18618956      -2.54607891
H        0.50162981       1.36028942      -0.80048969
H        0.54919980      -0.25631990      -1.53170939
H        3.00426881       0.14281995      -2.16975913
H        2.52760901       1.72178927       0.41681982
H        4.72109814       0.72443969       0.93407965
H        5.25074800       0.83273970      -1.92571923
H        4.98752815      -0.51965979      -1.04809957
H        6.27526741       2.55315907       0.34646987
H        3.64301865       3.87093836      -0.52348980
H        5.25931818       4.66946813      -0.09916996
