20
Properties=species:S:1:pos:R:3 atomization_energy=-1928.68 smiles=C.C.N.C.C.C.C.H.H.H.H.H.H.H.H.H.H.H.H.H pbc="F F F"
C        2.24596923      -0.24991990      -1.53184944
C        2.39367915       0.15960994      -0.07148997
N        3.08122884       1.44243939       0.07778997
C        2.31679912       2.58327909      -0.42861984
C        3.02648885       3.77889852       0.19121992
C        3.70104852       3.23821875       1.44594944
C        3.34001876       1.76168928       1.48424942
H        1.81797933      -1.25599952      -1.59662944
H        3.21718870      -0.26581991      -2.03847926
H        1.58185935       0.42744984      -2.07797919
H        2.97991885      -0.61963978       0.43169983
H        1.40608944       0.17623993       0.40577986
H        1.27381953       2.55486912      -0.08895997
H        2.32776897       2.64408890      -1.52124938
H        3.78391840       4.17966843      -0.49351982
H        2.32393908       4.58634820       0.42312984
H        4.78587813       3.37202875       1.37118950
H        3.35936879       3.75825858       2.34616896
H        4.15432832       1.15953959       1.90080921
H        2.44505910       1.61461939       2.10377918
