17
Properties=species:S:1:pos:R:3 atomization_energy=-1654.0 smiles=C.C.N.N.C.C.C.H.H.H.H.H.H.H.H.H.H pbc="F F F"
C        0.94241965       0.99629963       0.55560977
C        2.42241892       0.84174969       0.41010983
N        3.18530867       1.87557924       0.27304989
N        4.51581808       1.48912938       0.15448994
C        5.33363781       2.48751913      -0.00267000
C        4.90953811       3.93620838      -0.04862998
C        6.80592711       2.19107911      -0.12099995
H        0.63201978       0.55303978       1.50510939
H        0.44902981       0.45976982      -0.25873990
H        0.65335974       2.04991919       0.52977982
H        2.82276896      -0.18746993       0.42484982
H        4.12479849       4.07544830      -0.79619968
H        5.75866761       4.57041802      -0.31569987
H        4.54069844       4.23745835       0.93499966
H        6.98926747       1.11386953      -0.08024997
H        7.33813713       2.67623894       0.70154972
H        7.17830698       2.58143909      -1.07159962
