18
Properties=species:S:1:pos:R:3 atomization_energy=-1769.38 smiles=C.C.C.C.C.C.H.H.H.H.H.H.H.H.H.H.H.H pbc="F F F"
C        0.99337958       0.01221999      -0.02084999
C        2.51123902       0.00492000       0.04604998
C        3.07791876       1.12605952       0.91222966
C        4.49689828       0.65422972       1.18154956
C        4.35361853      -0.84579968       1.41116949
C        3.08211881      -1.27054945       0.67357975
H        0.63029976      -0.81631969      -0.63725975
H        0.63084978       0.94721962      -0.45978981
H        0.54836976      -0.08727996       0.97482964
H        2.91071877       0.10604996      -0.97229964
H        2.52331913       1.21854953       1.85354921
H        3.05616881       2.09471922       0.40402984
H        5.12787782       0.83814969       0.30371987
H        4.95122828       1.16336960       2.03647915
H        5.23408808      -1.39140943       1.05739956
H        4.24559855      -1.05603955       2.48176900
H        3.29910880      -2.02034926      -0.09481996
H        2.37898918      -1.72481926       1.38117942
