15
Properties=species:S:1:pos:R:3 atomization_energy=-1543.11 smiles=N.C.C.C.C.C.N.H.H.H.H.H.H.H.H pbc="F F F"
N        0.87722968       0.04169998      -0.00179000
C        2.17044926       0.02216999       0.02611999
C        2.86349875      -1.33726949       0.04846998
C        4.35456831      -1.22927954       0.02644999
C        4.99787827      -0.05429998      -0.01322000
C        4.32879822       1.28225951      -0.04046998
N        2.89114896       1.18125951       0.04499998
H        0.55039976       1.00841960      -0.00450000
H        2.52128912      -1.91224928      -0.81920970
H        2.54544908      -1.86708930       0.95314965
H        4.91839796      -2.15740903       0.04285998
H        6.08485774      -0.04889998      -0.02992999
H        4.69328820       1.88501921       0.79780968
H        4.59959811       1.80174926      -0.96562964
H        2.39210915       2.05682916      -0.01784999
