17
Properties=species:S:1:pos:R:3 atomization_energy=-1655.17 smiles=C.N.C.N.C.C.C.H.H.H.H.H.H.H.H.H.H pbc="F F F"
C        0.90620967       0.22523991       0.21534992
N        2.33464903      -0.07161997       0.16435994
C        3.07333869       0.97578963       0.03875999
N        4.45952802       1.02738961      -0.03750998
C        5.19201790      -0.24257990       0.03678998
C        5.15149805       2.23080917      -0.13936995
C        6.46879741       2.45605897      -0.19231993
H        0.37268986      -0.65109974       0.59573978
H        0.52197979       0.44499983      -0.78575966
H        0.68019972       1.06231964       0.88507964
H        2.61634887       1.98200916      -0.02500999
H        4.53741814      -1.11984953       0.01557000
H        5.77374794      -0.28855987       0.96399965
H        5.87562769      -0.34012986      -0.81412971
H        4.48964830       3.09533870      -0.17753993
H        7.19804736       1.65525936      -0.15842993
H        6.84916710       3.46963856      -0.27165989
