13
Properties=species:S:1:pos:R:3 atomization_energy=-1389.88 smiles=C.N.N.C.C.C.C.H.H.H.H.H.H pbc="F F F"
C        2.84728900      -1.04074960       0.39303984
N        2.25403904       0.09132997       0.24510990
N        3.02214875       1.20714958       0.14849994
C        2.45992897       2.45377916      -0.00550000
C        3.45419866       3.40088863      -0.07616996
C        4.68149828       2.71488902       0.03775999
C        4.38943847       1.37313952       0.17394993
H        2.22948922      -1.95024923       0.47168982
H        3.93442844      -1.20503958       0.45182984
H        1.38354944       2.54906903      -0.05064998
H        3.30747863       4.46673814      -0.19667993
H        5.67361784       3.14724878       0.02247999
H        5.06454823       0.54001980       0.28529988
