11
Properties=species:S:1:pos:R:3 atomization_energy=-1146.37 smiles=O.N.C.C.C.C.H.H.H.H.H pbc="F F F"
O        0.90944967      -0.02644999      -0.03299999
N        2.29433911      -0.01002999      -0.01028999
C        3.07983874       1.10429961      -0.00311000
C        4.39316843       0.68025971       0.01213000
C        4.38022838      -0.73859970       0.01394999
C        3.05989877      -1.13500959       0.00092000
H        0.71751970       0.92088961       0.03567999
H        2.65913895       2.09894918      -0.01108000
H        5.26534789       1.32102945       0.01942999
H        5.23859775      -1.39784943       0.02248999
H        2.60366897      -2.11449922      -0.00346000
