19
Properties=species:S:1:pos:R:3 atomization_energy=-1776.73 smiles=C.N.C.C.C.C.N.H.H.H.H.H.H.H.H.H.H.H.H pbc="F F F"
C        2.96615872      -1.01973962      -0.59101979
N        2.34326917       0.15500995       0.01858999
C        1.73047931      -0.20095992       1.29818944
C        3.30440877       1.26467947       0.16778994
C        3.56763872       2.17533919      -1.00162962
C        2.79792897       2.69053905       0.17505993
N        3.40595873       3.68774865       1.05893953
H        3.38052878      -0.76866970      -1.57388934
H        2.22559903      -1.81082927      -0.75376974
H        3.77607847      -1.42305947       0.02788999
H        0.97373963      -0.98169961       1.16207956
H        1.21644950       0.66410975       1.73214936
H        2.47136892      -0.55676980       2.02359915
H        4.16148847       1.04327960       0.80149971
H        3.01829893       2.00580917      -1.92052928
H        4.58084838       2.52545890      -1.15567955
H        1.73068937       2.83427880       0.01740999
H        4.40047847       3.51184853       1.19231957
H        2.98353879       3.63984861       1.98577924
