19
Properties=species:S:1:pos:R:3 atomization_energy=-1780.49 smiles=C.N.C.C.C.C.N.H.H.H.H.H.H.H.H.H.H.H.H pbc="F F F"
C        1.17787953       1.06623961      -0.87094966
N        2.41880907       1.25323952      -0.13205995
C        3.50214866       1.65435929      -1.02450956
C        4.72843795       1.84794922      -0.18662992
C        5.70912792       0.72111971       0.01484999
C        6.08305761       1.89691928      -0.84222969
N        7.08490707       2.84203899      -0.35835987
H        0.37653987       0.80043966      -0.17526994
H        1.26723949       0.26073990      -1.60669934
H        0.87748964       1.98643921      -1.38200946
H        2.67304896       0.37829985       0.32582986
H        3.26022859       2.60205910      -1.51902937
H        3.66977862       0.89573963      -1.79873933
H        4.54750836       2.52374910       0.64282977
H        5.53077766      -0.22510992      -0.48510981
H        6.17174750       0.61750978       0.98917960
H        6.12644748       1.71650936      -1.91472919
H        7.05005709       2.93238872       0.65695976
H        6.90172719       3.77630859      -0.72348973
