16
Properties=species:S:1:pos:R:3 atomization_energy=-1612.12 smiles=C.N.C.C.C.C.C.H.H.H.H.H.H.H.H.H pbc="F F F"
C        2.85932898      -1.11379950      -0.51469981
N        2.34045896       0.08790996       0.12581995
C        3.33903871       1.16714952       0.16995993
C        3.45637855       2.10446918      -0.99698962
C        2.86862890       2.59828902       0.29735990
C        3.63411867       3.50820865       1.09901958
C        4.27179811       4.27276807       1.77068930
H        2.07975913      -1.88121922      -0.54060982
H        3.71680863      -1.51812943       0.03290999
H        3.16061881      -0.91162962      -1.54757939
H        2.03458919      -0.14461994       1.07131954
H        4.26353829       0.91121964       0.68577971
H        2.78150901       1.97127928      -1.83456923
H        4.44894827       2.43396914      -1.28076950
H        1.79509932       2.76408882       0.30566989
H        4.83608801       4.95232794       2.36550914
