8
Properties=species:S:1:pos:R:3 atomization_energy=-810.17 smiles=O.N.C.C.C.H.H.H pbc="F F F"
O        0.96223963       0.07536997       0.00000000
N        2.35789908      -0.04829998      -0.00000000
C        2.87943877       1.12747952       0.00000000
C        4.31361848       1.09250956       0.00000000
C        5.51483790       1.06943954       0.00000000
H        0.67134977      -0.85636964      -0.00000000
H        2.33645900       2.08482922       0.00000000
H        6.57958748       1.03845957      -0.00000000
