15
Properties=species:S:1:pos:R:3 atomization_energy=-1523.09 smiles=C.C.N.C.N.C.C.H.H.H.H.H.H.H.H pbc="F F F"
C        1.13506951      -0.50771979       0.07380997
C        2.46146895      -0.34561986       0.06250998
N        3.13093885       0.84856964      -0.01770999
C        4.47813846       1.13560950      -0.04363998
N        5.41747790       0.23758991      -0.03021999
C        4.98655819       2.54248899      -0.09410996
C        4.22808828       3.64497850      -0.09790996
H        0.70300971      -1.50134940       0.14270995
H        0.45087981       0.33133987       0.01553000
H        3.09452871      -1.22619958       0.12548995
H        2.51215902       1.64841929      -0.06227997
H        5.00228801      -0.69195974      -0.00217000
H        6.07020739       2.62754884      -0.12639995
H        3.14699873       3.63514868      -0.06281998
H        4.70406830       4.62101801      -0.13486995
