21
Properties=species:S:1:pos:R:3 atomization_energy=-1929.24 smiles=C.C.N.C.C.C.N.H.H.H.H.H.H.H.H.H.H.H.H.H.H pbc="F F F"
C        1.08691954      -0.13764995      -0.03212999
C        2.60546885      -0.05936998      -0.01455999
N        3.02468872       1.34096942       0.02759999
C        4.49315823       1.44893944      -0.00080000
C        4.97315788       2.92291873       0.03909998
C        4.64634803       3.65768868      -1.26287946
N        4.37231830       3.64780865       1.17388954
H        0.76405968      -1.18316953      -0.05784998
H        0.67649972       0.36332985      -0.91540967
H        0.65337974       0.32768986       0.85923966
H        2.99536884      -0.54773981      -0.91490961
H        2.98589884      -0.60082974       0.85944966
H        2.70975887       1.75508930       0.90663964
H        4.88884795       0.96870960      -0.90384961
H        4.91215832       0.92194965       0.86615965
H        6.06111741       2.92088872       0.17369993
H        3.56648859       3.72294860      -1.43656941
H        5.09412801       3.14231874      -2.11915915
H        5.04453785       4.67832799      -1.24542949
H        3.37417862       3.74970859       0.98458963
H        4.73924832       4.59924838       1.18742952
