18
Properties=species:S:1:pos:R:3 atomization_energy=-1747.68 smiles=C.C.C.C.N.C.C.H.H.H.H.H.H.H.H.H.H.H pbc="F F F"
C        0.99382962      -0.13252995       0.05187998
C        2.52527898      -0.00468000      -0.00811000
C        2.98453878      -0.72839972      -1.21843951
C        3.35244860      -1.31962952      -2.19706919
N        2.99433882       1.40175943      -0.02996999
C        2.43783914       2.19607905       1.06833963
C        4.46093805       1.47286940       0.03267999
H        0.59412978       0.22026991       1.00803959
H        0.68424976      -1.17950959      -0.05361998
H        0.51215981       0.43305983      -0.75459971
H        2.93272886      -0.51290980       0.87658964
H        3.67821860      -1.83623928      -3.07032889
H        1.35664941       2.32571902       0.95780965
H        2.85410875       3.21051883       1.06362961
H        2.64360897       1.74795930       2.04706924
H        4.92830802       0.99124959      -0.83227970
H        4.85621799       1.01022957       0.94449962
H        4.79589820       2.51653899       0.00687000
