13
Properties=species:S:1:pos:R:3 atomization_energy=-1343.14 smiles=C.C.N.N.C.C.C.H.H.H.H.H.H pbc="F F F"
C        0.82033971       0.53302978      -0.05870998
C        2.27928907       0.25669990       0.10183995
N        2.85957879      -0.88552967       0.28852988
N        1.96279918      -1.95087918       0.33776986
C        2.59277886      -3.06107867       0.52638978
C        3.23121882       1.33673947       0.05360998
C        4.02294852       2.24007906       0.01264000
H        0.63702975       1.60313933      -0.18887993
H        0.28131989       0.18867992       0.82847966
H        0.44104984       0.00105000      -0.93582964
H        2.03138925      -4.00558838       0.59056976
H        3.68972844      -3.12188874       0.62997974
H        4.73177831       3.03397880      -0.02235999
