18
Properties=species:S:1:pos:R:3 atomization_energy=-1763.88 smiles=C.C.C.C.N.C.C.H.H.H.H.H.H.H.H.H.H.H pbc="F F F"
C        1.10970959       1.56025942       1.23407951
C        2.51232909       1.19299947       0.87109967
C        3.24849872       1.86284926      -0.02920999
C        4.65302825       1.50932938      -0.42570983
N        5.53217760       2.66590900      -0.22147991
C        6.38910767       2.55623902       0.95676960
C        6.94400731       2.35832906      -0.42962983
H        0.44321982       0.71285971       1.04660956
H        0.74278973       2.41478893       0.65681971
H        1.05265958       1.81523927       2.29639914
H        2.93376872       0.33149987       1.38401941
H        2.82285879       2.72624897      -0.53732976
H        4.64556832       1.25921952      -1.49373947
H        4.99087810       0.60848976       0.10404996
H        6.28406771       1.69442937       1.60404936
H        6.60805752       3.48722857       1.46517948
H        7.53805716       3.15635870      -0.85865968
H        7.21545721       1.35842949      -0.74455971
