19
Properties=species:S:1:pos:R:3 atomization_energy=-1771.9 smiles=C.N.C.C.C.N.C.H.H.H.H.H.H.H.H.H.H.H.H pbc="F F F"
C        1.13796956       2.29147919      -0.03372999
N        2.57583911       2.33395916      -0.27159990
C        3.25204877       1.22658955       0.41192983
C        4.73961824       1.24778954       0.09769996
C        5.60653760       2.31109921       0.80532965
N        6.65346756       1.27977947       0.99408958
C        5.60320784       0.23971990       0.88453965
H        0.65887974       3.12582889      -0.55469980
H        0.90524961       2.38116907       1.03193958
H        0.69973974       1.36600952      -0.42059984
H        2.93888878       3.22129868       0.07742997
H        2.83290889       0.27334988       0.06754998
H        3.08442890       1.29197944       1.49423947
H        4.93548785       1.19447952      -0.98367960
H        5.20029790       2.69096903       1.75017931
H        5.90796747       3.16172881       0.18736993
H        7.32222714       1.25031955       0.22313991
H        5.90309748      -0.65695976       0.33431986
H        5.19834789      -0.06584997       1.85676921
