15
Properties=species:S:1:pos:R:3 atomization_energy=-1650.42 smiles=C.C.C.C.C.C.C.H.H.H.H.H.H.H.H pbc="F F F"
C        1.01723959       0.03455999      -0.27610988
C        2.32342912       0.00760000       0.00497000
C        3.18883878      -1.21186956       0.21409992
C        4.53204802      -0.64095975       0.60241974
C        5.62288765      -1.31811944       0.97011962
C        4.41605841       0.79591972       0.52333979
C        3.17183872       1.16134956       0.18689993
H        0.45176981      -0.88485967      -0.38499984
H        0.48070981       0.96990962      -0.39612986
H        3.27256860      -1.78435935      -0.71689972
H        2.78647893      -1.84762926       1.00963962
H        5.61778804      -2.40267905       1.01305959
H        6.54234743      -0.81008969       1.24295954
H        5.22797814       1.47968942       0.72344974
H        2.83682886       2.18193916       0.07602997
