21
Properties=species:S:1:pos:R:3 atomization_energy=-1935.47 smiles=C.C.N.C.C.C.N.H.H.H.H.H.H.H.H.H.H.H.H.H.H pbc="F F F"
C        2.93192872      -0.83615967       1.38030950
C        2.62151889      -0.23675991       0.00950000
N        1.16946958      -0.23292990      -0.20069991
C        3.14934869       1.20239957      -0.14783994
C        4.67632801       1.35820945      -0.01517000
C        5.44781770       0.56792978      -1.06978953
N        5.01657804       2.78103892      -0.12978995
H        4.00976850      -0.96145962       1.52313935
H        2.47885912      -1.82858923       1.48660947
H        2.55186890      -0.20394992       2.19068925
H        3.05804868      -0.87638967      -0.76448971
H        0.72246975       0.35958986       0.49888980
H        0.79704972      -1.16991949      -0.05500998
H        2.66332891       1.84452925       0.60114976
H        2.83479885       1.58643941      -1.12924949
H        4.99520810       1.03011958       0.97867959
H        5.12610797       0.82994968      -2.08425921
H        5.30959771      -0.50977979      -0.93677960
H        6.52434763       0.76213969      -0.99728958
H        4.72999836       3.13101884      -1.04401956
H        6.02847785       2.89852890      -0.08871996
