20
Properties=species:S:1:pos:R:3 atomization_energy=-1916.15 smiles=C.C.N.C.C.C.C.H.H.H.H.H.H.H.H.H.H.H.H.H pbc="F F F"
C        0.99892961      -0.00658000      -0.17594992
C        2.51621903       0.00767000      -0.06822997
N        3.00185880       1.38673941      -0.07058997
C        4.45630827       1.42604947       0.04551999
C        4.91149822       2.85294879       0.03785998
C        5.59699797       3.43584862       1.03499961
C        6.05711745       4.85660809       1.01242959
H        0.63190976      -1.03771961      -0.17650993
H        0.66344972       0.47137980      -1.10234960
H        0.53544976       0.51536981       0.66779972
H        2.93755874      -0.54467979      -0.91582961
H        2.81384880      -0.50388981       0.85448965
H        2.59966901       1.88868924       0.72026973
H        4.91867805       0.91401964      -0.80608967
H        4.78377823       0.91883967       0.96111960
H        4.66345810       3.42519873      -0.85432967
H        5.84628762       2.86417879       1.92615929
H        5.81241770       5.35697795       0.07000997
H        7.14216709       4.89785820       1.14759953
H        5.58719792       5.41375803       1.82870934
