17
Properties=species:S:1:pos:R:3 atomization_energy=-1673.22 smiles=C.N.C.C.C.N.C.H.H.H.H.H.H.H.H.H.H pbc="F F F"
C        0.96281962      -0.04075998      -0.01814999
N        2.40452914       0.03637999      -0.15844993
C        3.05309870       1.27054945       0.25266990
C        4.46521809       1.27826952      -0.30834987
C        5.19071789       0.01931999       0.14294995
N        4.44490845      -1.20881951      -0.15027993
C        3.16913877      -1.09793960      -0.25340990
H        0.49389980       0.93369965      -0.18972992
H        0.69538974      -0.38176984       0.98650961
H        0.54135980      -0.73921968      -0.74827970
H        2.50548890       2.14113922      -0.12508995
H        3.07185877       1.33405946       1.34731947
H        5.00594782       2.17050906       0.02591999
H        4.42804818       1.30814945      -1.40535944
H        5.39577791       0.06102998       1.21852946
H        6.16015742      -0.03401998      -0.36534986
H        2.57372911      -2.00522919      -0.45250980
