20
Properties=species:S:1:pos:R:3 atomization_energy=-1942.37 smiles=N.C.C.C.C.C.C.H.H.H.H.H.H.H.H.H.H.H.H.H pbc="F F F"
N        0.99312959       0.02786999       0.10186996
C        2.45544909       0.01279999       0.02551999
C        2.94503884      -1.33578944      -0.51897979
C        2.60467906      -1.53790943      -1.99637917
C        3.10901884      -0.37913986      -2.85232881
C        2.61340896       0.96903965      -2.33574919
C        2.95285884       1.16496951      -0.85757963
H        0.68023971       0.90660962       0.51092979
H        0.67502976      -0.71144975       0.72782970
H        2.84765891       0.14883994       1.04013960
H        2.52715911      -2.16171910       0.06979998
H        4.03477831      -1.39107951      -0.39676983
H        3.05088878      -2.47468909      -2.34920905
H        1.51984945      -1.63957937      -2.11899917
H        4.20603831      -0.38371986      -2.85842892
H        2.78473885      -0.51849979      -3.88972847
H        3.06575891       1.77516932      -2.92469893
H        1.52904945       1.04177962      -2.48252902
H        4.04309843       1.24410955      -0.75313972
H        2.54058893       2.12014904      -0.51013980
