15
Properties=species:S:1:pos:R:3 atomization_energy=-1484.65 smiles=C.C.C.C.C.N.N.H.H.H.H.H.H.H.H pbc="F F F"
C        1.07366963      -0.01097999       0.02950999
C        2.58514887      -0.01012000       0.07852997
C        3.27496878      -1.35623950      -0.08310997
C        3.40760872      -1.71477938      -1.50358935
C        3.51418865      -2.01407920      -2.66282905
N        3.17761887       1.14124961       0.23137991
N        4.52684798       1.12882961       0.23289990
H        0.68050970       0.99624960       0.19282992
H        0.68560970      -0.67434973       0.80717968
H        0.74087971      -0.36848987      -0.94850960
H        2.67264902      -2.11147919       0.43451982
H        4.25384827      -1.35401949       0.40525983
H        3.60663853      -2.28111922      -3.69027852
H        4.88838821       0.95707965      -0.70973970
H        4.87152794       2.06090923       0.47771981
