15
Properties=species:S:1:pos:R:3 atomization_energy=-1484.14 smiles=C.C.C.N.N.C.C.H.H.H.H.H.H.H.H pbc="F F F"
C        1.86407924      -0.07972997       1.59695936
C        2.76387888      -0.20169992       0.61694973
C        3.20781863       0.98641959      -0.14163994
N        4.07941849       0.88592968      -1.09314960
N        4.34498830       2.08294923      -1.65425937
C        4.64698794       1.83063930      -3.06449877
C        5.74701798       2.05073915      -2.07486921
H        1.53875941      -0.95347964       2.15313908
H        1.43041947       0.87675965       1.87253928
H        3.19899865      -1.15453952       0.33863987
H        2.75503896       1.95272927       0.15120995
H        4.39982847       2.63625907      -3.74296857
H        4.48638818       0.83247968      -3.45341870
H        6.35440758       1.20632950      -1.77268928
H        6.25283768       3.00705884      -2.07583917
