13
Properties=species:S:1:pos:R:3 atomization_energy=-1249.87 smiles=C.C.C.O.C.H.H.H.H.H.H.H.H pbc="F F F"
C        0.93516960      -0.00958999       0.04334998
C        2.44791902       0.02158999       0.00381000
C        3.14411887       1.01434957       0.94135960
O        4.00729843      -0.02915999       1.45856942
C        3.18413886      -1.04116961       0.82986969
H        0.55354980      -0.86909963      -0.51728980
H        0.52049980       0.89676964      -0.40872983
H        0.55688978      -0.07973997       1.06814963
H        2.82399882       0.08473997      -1.02526959
H        2.52983912       1.44519939       1.73841929
H        3.71333857       1.80448933       0.44393981
H        3.78085863      -1.75025930       0.25010991
H        2.58749908      -1.57896940       1.57327933
