19
Properties=species:S:1:pos:R:3 atomization_energy=-1786.63 smiles=C.C.N.C.N.C.C.H.H.H.H.H.H.H.H.H.H.H.H pbc="F F F"
C        3.15710888      -1.19360948      -0.41156985
C        2.47560909       0.07565998       0.09049996
N        1.89107919      -0.14205994       1.41412947
C        3.45392866       1.21496957       0.19757992
N        3.65083864       2.14084903      -0.92396963
C        2.96404872       2.64233899       0.26326990
C        3.65132867       3.63085855       1.13819956
H        3.59277848      -1.02927957      -1.40290943
H        2.44270913      -2.02007926      -0.49036981
H        3.96861832      -1.50716942       0.25491991
H        1.66335932       0.33591987      -0.59888976
H        2.61810888      -0.44600982       2.06068920
H        1.22690951      -0.91391965       1.36406946
H        4.34872836       0.95917962       0.75445974
H        2.97845886       1.96910923      -1.67367929
H        1.90121925       2.83383898       0.17611993
H        4.73103797       3.45361855       1.19947947
H        3.24217884       3.58245863       2.15199905
H        3.49519870       4.64555823       0.75728969
