9
Properties=species:S:1:pos:R:3 atomization_energy=-949.91 smiles=N.C.C.C.N.H.H.H.H pbc="F F F"
N        0.98112960      -0.09832996       0.00000000
C        2.33658920       0.00838000       0.00000000
C        3.05351883       1.13798949       0.00000000
C        4.45951843       1.13798949       0.00000000
N        5.61052796       1.13798949       0.00000000
H        0.54167976      -1.01337961       0.00000000
H        0.39025984       0.72566969       0.00000000
H        2.83534893      -0.96178960       0.00000000
H        2.55931898       2.10175914      -0.00000000
