21
Properties=species:S:1:pos:R:3 atomization_energy=-1920.35 smiles=C.N.C.C.C.N.C.H.H.H.H.H.H.H.H.H.H.H.H.H.H pbc="F F F"
C        1.06665961      -0.09700996       0.17216994
N        2.52323889      -0.09333996       0.09656997
C        3.03080876       1.27264948      -0.09370996
C        4.58612817       1.35380943      -0.15632994
C        5.13027800       0.59790976      -1.37510946
N        4.97732791       2.78086885      -0.18327992
C        6.41673744       2.98466873      -0.07355997
H        0.71256972      -1.12223961       0.31850986
H        0.61644974       0.28581988      -0.74946970
H        0.71145971       0.49826980       1.01963957
H        2.80625893      -0.67260972      -0.69408973
H        2.68458883       1.88963927       0.74606972
H        2.60900906       1.70172931      -1.01250958
H        4.98614790       0.89356964       0.75664972
H        4.76696792       1.03827960      -2.31017921
H        4.83121802      -0.45432981      -1.35937951
H        6.22449735       0.60282978      -1.39895944
H        4.52962817       3.25049870       0.60430977
H        6.93993721       2.67199901      -0.98127961
H        6.83807714       2.46092897       0.79029967
H        6.61851715       4.05310841       0.05383998
