12
Properties=species:S:1:pos:R:3 atomization_energy=-1174.66 smiles=C.C.C.C.N.H.H.H.H.H.H.H pbc="F F F"
C        0.99999962       0.00000000       0.00000000
C        2.44399905       0.00000000       0.00000000
C        3.63415853       0.00000000       0.00000000
C        5.07815797       0.00000000       0.00000000
N        5.57975768       1.36641943       0.01824999
H        0.60598979       1.02087959       0.01166999
H        0.60591977      -0.52050980       0.87825963
H        0.60592973      -0.50029980      -0.88992963
H        5.45999773      -0.51403981      -0.88851967
H        5.46211782      -0.53333977       0.87548966
H        5.21417814       1.85961929      -0.79449966
H        6.59166759       1.35003947      -0.08466997
