17
Properties=species:S:1:pos:R:3 atomization_energy=-1761.54 smiles=C.C.C.C.C.C.C.H.H.H.H.H.H.H.H.H.H pbc="F F F"
C        1.42153943      -0.46516980       0.03220999
C        2.73953901      -0.23568990       0.06244998
C        3.30467876       1.09094952       0.01905999
C        4.62569824       1.32970952       0.04179998
C        5.24780784       2.65699893       0.00956000
C        6.43023766       2.87796895      -0.89723967
C        5.10722804       3.50418851      -1.22807957
H        1.03847957      -1.48007939       0.06653998
H        0.69585971       0.33968985      -0.02758999
H        3.42258862      -1.08026960       0.12165996
H        2.61642886       1.93175928      -0.03734998
H        5.31239808       0.48733982       0.10576996
H        5.25909815       3.17074865       0.96650965
H        6.77315735       2.06422916      -1.52627935
H        7.22419695       3.52615849      -0.54403981
H        5.00359812       4.57524814      -1.09688953
H        4.55920846       3.10962872      -2.07650923
