17
Properties=species:S:1:pos:R:3 atomization_energy=-1787.35 smiles=C.C.C.C.C.C.C.H.H.H.H.H.H.H.H.H.H pbc="F F F"
C        0.93809961      -0.00128000      -0.24627990
C        2.45473903       0.00078000      -0.05250998
C        2.88292877       1.26566949       0.65484976
C        3.50849858       1.27343952       1.84465933
C        3.85934854       0.02321999       2.60044897
C        3.50858866      -1.23943953       1.86448928
C        2.88357877      -1.25221948       0.67607972
H        0.61294978      -0.89229966      -0.79499972
H        0.61387974       0.87564964      -0.81753971
H        0.40891983       0.01100999       0.71422974
H        2.93459889      -0.00753000      -1.03922956
H        2.66833895       2.20881925       0.15983994
H        3.78574856       2.21945905       2.30002918
H        4.93613786       0.02442999       2.80405885
H        3.33873869       0.03071999       3.56464859
H        3.78646846      -2.17813905       2.33536919
H        2.66899905      -2.20382915       0.19635993
