19
Properties=species:S:1:pos:R:3 atomization_energy=-1791.17 smiles=C.C.C.C.N.C.N.H.H.H.H.H.H.H.H.H.H.H.H pbc="F F F"
C        2.73840881      -0.77047968       1.76748936
C        2.49890911      -0.19360993       0.39742983
C        1.61970942      -0.77174973      -0.44043982
C        3.27928869       1.04835960      -0.01623000
N        2.86138876       2.18904910       0.80653971
C        4.82716810       0.87123965       0.04207998
N        5.33565798      -0.18907993      -0.83460967
H        2.57284898      -0.01945999       2.54637893
H        3.76342860      -1.14511949       1.85513928
H        2.06575917      -1.60797942       1.98098923
H        1.05914960      -1.65956930      -0.16059993
H        1.43873946      -0.37433985      -1.43550949
H        3.02675884       1.30486953      -1.05372959
H        3.10825881       2.02405916       1.77858929
H        1.84559926       2.25682906       0.76847970
H        5.14677794       0.66356976       1.07015957
H        5.30703806       1.81205926      -0.25392990
H        4.86852822      -1.06609956      -0.60864974
H        6.32709726      -0.32832986      -0.65050973
