16
Properties=species:S:1:pos:R:3 atomization_energy=-1647.3 smiles=N.C.C.C.C.C.C.H.H.H.H.H.H.H.H.H pbc="F F F"
N        0.98807962       0.04136998      -0.55382976
C        2.19770911      -0.00077000       0.26633990
C        3.43204877       0.75091972      -0.15752993
C        3.69749848       1.20604954      -1.58073938
C        3.85411847      -0.06466998      -2.37761903
C        3.67491861      -1.12470955      -1.57271941
C        3.41843878      -0.76844967      -0.16661993
H        0.38397985       0.81150969      -0.27553990
H        0.44625981      -0.81332969      -0.44177983
H        1.99658924      -0.01720999       1.33659943
H        4.01927836       1.26842948       0.58767975
H        4.62035841       1.79298933      -1.62727935
H        2.87106895       1.81252923      -1.96298919
H        4.04377846      -0.10165996      -3.43891874
H        3.70841861      -2.15276916      -1.90784926
H        4.00557854      -1.28775945       0.57962975
