17
Properties=species:S:1:pos:R:3 atomization_energy=-1659.99 smiles=C.C.C.N.C.C.N.H.H.H.H.H.H.H.H.H.H pbc="F F F"
C        1.42950943      -0.99099959       0.86593968
C        2.82440886      -0.71167974       0.40531986
C        3.35041860       0.52089981       0.33624988
N        4.62181840       0.93061963      -0.06337997
C        5.64599767      -0.07338997      -0.38933985
C        5.03995804       2.25546899      -0.05444998
N        4.37818803       3.34886878       0.09691996
H        0.86313969      -1.47538944       0.06482998
H        0.89692962      -0.08034997       1.15780948
H        1.45049948      -1.66441936       1.72845927
H        3.40470868      -1.58305944       0.12096995
H        2.72065883       1.35015945       0.64467974
H        5.23464776      -0.88598967      -0.99651959
H        6.06746757      -0.49214982       0.53122978
H        6.46586734       0.35819986      -0.97536963
H        6.12842778       2.35457916      -0.21134992
H        3.38396856       3.15184879       0.20442992
