20
Properties=species:S:1:pos:R:3 atomization_energy=-1909.19 smiles=C.C.N.C.C.C.C.H.H.H.H.H.H.H.H.H.H.H.H.H pbc="F F F"
C        2.95493881      -0.96674961      -0.70444970
C        2.43483892       0.28778988      -0.01687999
N        3.47403871       1.31609953      -0.00163000
C        3.48279864       2.29006916      -1.09303958
C        2.56996887       2.26197914      -2.26836918
C        2.95952872       2.65342895       0.28161988
C        3.74837855       3.55280870       1.16870956
H        2.19525922      -1.75424929      -0.67271974
H        3.85229840      -1.34757949      -0.20588993
H        3.19978869      -0.77695967      -1.75377932
H        2.18741904       0.03430998       1.02162958
H        1.49481945       0.59994974      -0.48638982
H        4.47446805       2.62757887      -1.37656945
H        1.51343935       2.19551912      -1.99179924
H        2.81388892       1.42112939      -2.92476883
H        2.69193899       3.18206873      -2.84898895
H        1.89205925       2.77701903       0.42288984
H        4.82890818       3.41956871       1.04338956
H        3.50189860       3.35954870       2.21801925
H        3.50881853       4.59877804       0.95110962
