20
Properties=species:S:1:pos:R:3 atomization_energy=-1905.03 smiles=C.C.C.C.N.C.C.H.H.H.H.H.H.H.H.H.H.H.H.H pbc="F F F"
C        1.36252949      -0.13730995       0.15724994
C        2.68969904       0.15692993      -0.56081978
C        2.64458902      -0.57987975      -1.88241931
C        3.44194873      -1.60547932      -2.21265923
N        2.91748882       1.60509931      -0.77747972
C        2.85438884       2.36924894       0.47285982
C        4.22232831       1.85075931      -1.40852948
H        1.38209942       0.20319991       1.19778948
H        1.15887949      -1.21509953       0.18476992
H        0.51585981       0.34678986      -0.34523988
H        3.49913860      -0.25166990       0.06085997
H        1.90574923      -0.23261991      -2.60296900
H        4.19745829      -1.98279921      -1.52993942
H        3.35567869      -2.08368919      -3.18252874
H        1.84425925       2.36280894       0.89407966
H        3.08881871       3.42557874       0.29465989
H        3.55450866       1.98733928       1.22509954
H        4.27569814       1.41047949      -2.41015916
H        5.05084815       1.45617946      -0.80879971
H        4.38511805       2.92553894      -1.55107935
