21
Properties=species:S:1:pos:R:3 atomization_energy=-1914.18 smiles=C.N.C.C.N.C.C.H.H.H.H.H.H.H.H.H.H.H.H.H.H pbc="F F F"
C        2.07554924      -1.03915960      -0.15661995
N        3.23381885      -0.23118990       0.20251992
C        2.94532878       1.19999952       0.02735999
C        4.15346837       2.06100916       0.46290983
N        4.00604838       3.50317868       0.17401994
C        2.90051878       4.10126835       0.92455964
C        5.25395816       4.19980825       0.49608981
H        2.31838905      -2.09919911      -0.03294999
H        1.78013936      -0.88013963      -1.19861952
H        1.22368951      -0.81931965       0.49566981
H        4.01701848      -0.48613982      -0.39957985
H        2.07122920       1.46365944       0.63238976
H        2.71073893       1.40653947      -1.02374961
H        5.03423820       1.69234928      -0.08150996
H        4.35019844       1.90000920       1.53171936
H        1.93717923       3.69660850       0.59826978
H        2.84870887       5.18087798       0.73891972
H        2.99970894       3.94449848       2.00438918
H        6.08580751       3.79769846      -0.09273996
H        5.51135774       4.11754826       1.55917944
H        5.17876799       5.26364768       0.24157991
