20
Properties=species:S:1:pos:R:3 atomization_energy=-1909.91 smiles=C.C.N.C.C.C.C.H.H.H.H.H.H.H.H.H.H.H.H.H pbc="F F F"
C        2.30421914      -0.44773983      -1.39307949
C        2.39712903       0.15567993       0.00236000
N        3.28965875       1.31793953       0.00230000
C        2.59583888       2.52926910      -0.51328978
C        3.26556868       3.32002858       0.62523976
C        3.31676871       1.95495925       1.35193953
C        4.59274833       1.64278940       2.10895916
H        1.68170935      -1.34819947      -1.37175951
H        3.29338871      -0.73276972      -1.76738931
H        1.85588933       0.25291990      -2.10521923
H        2.80875877      -0.60668976       0.67484973
H        1.38959946       0.39191984       0.36778987
H        1.50001936       2.51998911      -0.45284982
H        2.89081891       2.82911888      -1.52308938
H        4.24239849       3.74124843       0.35934987
H        2.65447890       4.09414832       1.09578961
H        2.42310905       1.77742932       1.96793917
H        5.48608778       1.81502933       1.49870939
H        4.60344818       0.59864979       2.43875914
H        4.67038813       2.27329923       3.00071876
