17
Properties=species:S:1:pos:R:3 atomization_energy=-1645.85 smiles=C.C.C.C.N.N.C.H.H.H.H.H.H.H.H.H.H pbc="F F F"
C        2.19379924      -0.32797988       1.52074939
C        2.21010917       0.06450998       0.05513998
C        2.41285910       1.55871944      -0.08731996
C        1.19970946       2.45072898       0.03869998
N        3.62812857       1.99522917      -0.24152990
N        3.71927845       3.38007862      -0.30867989
C        4.94931813       3.74602859      -0.44018983
H        2.04389920      -1.40685942       1.62590932
H        1.38987942       0.18455992       2.05933923
H        3.13916889      -0.06454997       2.00718917
H        1.26970956      -0.22006992      -0.42753983
H        3.02059893      -0.45979982      -0.46277981
H        0.28209988       1.86130928      -0.03751999
H        1.19196958       3.19900874      -0.75850971
H        1.21779947       2.94965878       1.01151961
H        5.19827774       4.81581824      -0.50879980
H        5.78882776       3.03166871      -0.48873981
