18
Properties=species:S:1:pos:R:3 atomization_energy=-1763.61 smiles=C.C.C.N.C.C.C.H.H.H.H.H.H.H.H.H.H.H pbc="F F F"
C        1.10257960      -0.33455987       0.48449980
C        2.61568902      -0.15180994       0.49853979
C        3.07887888       1.24747956       0.04020999
N        2.52978890       2.29579910       0.91512964
C        4.61861834       1.36421948       0.02578999
C        5.24341778       0.49537981      -0.98820963
C        5.76197769      -0.21022991      -1.81118923
H        0.84972967      -1.37729945       0.70262970
H        0.68478975      -0.08259997      -0.49521981
H        0.61485974       0.28647988       1.24178949
H        3.04703871      -0.91381966      -0.16130993
H        2.99101890      -0.36319987       1.50775938
H        2.70178899       1.42987948      -0.97444963
H        2.73801896       2.07538913       1.88877919
H        1.51343935       2.30830918       0.84024965
H        5.02538793       1.12407960       1.01565961
H        4.90467821       2.40194906      -0.18912992
H        6.22526747      -0.83467969      -2.54117888
