11
Properties=species:S:1:pos:R:3 atomization_energy=-1174.94 smiles=O.C.C.C.C.N.H.H.H.H.H pbc="F F F"
O        2.04508920      -0.96982964      -0.79888972
C        1.86621927       0.10606996      -0.23847991
C        2.97790877       1.01292958       0.21547992
C        4.34490806       0.42594983      -0.10790996
C        5.41044795       1.32601943       0.34314985
N        6.24051736       2.05222916       0.70750972
H        0.84536964       0.47239982      -0.03376999
H        2.86397895       1.16653951       1.29461945
H        2.84166882       1.98153919      -0.27882989
H        4.43815808       0.25751990      -1.18741955
H        4.46030823      -0.55171977       0.37506985
