19
Properties=species:S:1:pos:R:3 atomization_energy=-1798.98 smiles=C.C.N.C.C.C.N.H.H.H.H.H.H.H.H.H.H.H.H pbc="F F F"
C        2.63252885      -0.49205979       1.51063936
C        2.77574879       0.00727000       0.08136997
N        3.31016874       1.36995951       0.06243998
C        2.30877902       2.43354900       0.08658996
C        4.66469806       1.65745931       0.15805994
C        5.12059806       3.10468883       0.21489992
N        5.60898774       0.77887972       0.21781991
H        2.21297919      -1.50228946       1.51931943
H        1.96858917       0.15801994       2.08928918
H        3.59996866      -0.52061978       2.02123923
H        1.79692936      -0.02729999      -0.41378983
H        3.41158874      -0.67187973      -0.49795981
H        1.28628949       2.04070923       0.09150996
H        2.40877916       3.06879874      -0.79869971
H        2.42057893       3.04878888       0.98473964
H        4.70895797       3.66393867      -0.62949975
H        6.21258732       3.16718876       0.17112994
H        4.78441814       3.55586872       1.15267959
H        5.22927814      -0.16364994       0.18085992
