19
Properties=species:S:1:pos:R:3 atomization_energy=-1790.09 smiles=C.C.N.C.N.C.C.H.H.H.H.H.H.H.H.H.H.H.H pbc="F F F"
C        0.94723961       0.05574998       0.05159998
C        2.48041903      -0.06933997       0.00221000
N        2.88968897      -0.93177966       1.12902959
C        2.93146872      -0.74913971      -1.33530951
N        2.48564910      -2.14617903      -1.44758947
C        3.08675868       1.32029946       0.08765996
C        3.90309849       1.82249934       1.02656960
H        0.56949978       0.62602975      -0.80496970
H        0.61540976       0.57099977       0.96165959
H        0.45662981      -0.92425962       0.03425998
H        2.58392910      -0.49946979       1.99888924
H        3.90620847      -0.97356963       1.15589959
H        4.02776830      -0.73909970      -1.39197945
H        2.55807902      -0.18961992      -2.20059906
H        2.54799889      -2.54589899      -0.50519979
H        3.13957868      -2.66567887      -2.02861916
H        2.80712896       1.98656916      -0.73080974
H        4.23831829       1.25038957       1.88421932
H        4.25651844       2.84723878       0.95427960
