15
Properties=species:S:1:pos:R:3 atomization_energy=-1515.95 smiles=C.N.C.C.C.C.N.H.H.H.H.H.H.H.H pbc="F F F"
C        1.16220951      -0.09614996      -0.04141998
N        2.62320900      -0.10413995      -0.02867999
C        3.20617873      -0.61221978      -1.26618954
C        3.22177861       0.86925967      -0.94491962
C        4.48834829       1.55233937      -0.52423979
C        5.11541821       1.97573923      -1.78045931
N        5.60851789       2.31450921      -2.77552902
H        0.79444969       0.65721972       0.66310976
H        0.78681970      -1.07045959       0.28868989
H        0.72021971       0.11851995      -1.02218957
H        2.54521896      -0.96392962      -2.05027915
H        4.12004836      -1.18400954      -1.15511950
H        2.54580891       1.52691939      -1.48298940
H        5.15146777       0.88481967       0.03643999
H        4.25764838       2.41643893       0.10704996
