17
Properties=species:S:1:pos:R:3 atomization_energy=-1558.01 smiles=C.O.C.C.C.N.H.H.H.H.H.H.H.H.H.H.H pbc="F F F"
C        1.09128954       1.63831935       1.37806943
O        2.49386904       1.83147931       1.24393947
C        2.97848888       1.31868946       0.00354000
C        4.48922842       1.51321945      -0.07311997
C        4.87544816       2.99025888      -0.02603999
N        6.32084752       3.14052870      -0.18625993
H        0.77496973       2.06871914       2.33149918
H        0.85145965       0.57092975       1.37893948
H        0.55480976       2.14482906       0.56996975
H        2.48568897       1.83704927      -0.82739968
H        2.74696890       0.24926989      -0.06275997
H        4.85933832       1.05662957      -0.99890961
H        4.96314790       0.99087961       0.76739972
H        4.57175840       3.43954856       0.92562965
H        4.37227843       3.53804859      -0.82996967
H        6.79386719       2.66438895       0.58160979
H        6.56344737       4.12658828      -0.09562996
