21
Properties=species:S:1:pos:R:3 atomization_energy=-1929.49 smiles=C.N.C.C.C.C.N.H.H.H.H.H.H.H.H.H.H.H.H.H.H pbc="F F F"
C        2.22705902      -0.02692999      -1.76221930
N        3.37640872       0.83658965      -1.52598942
C        3.93641832       0.60284978      -0.18200993
C        5.19206786       1.48748935       0.09532996
C        5.55362777       1.41185949       1.58448940
C        6.38608726       1.00665959      -0.74756970
N        4.91317824       2.89757887      -0.25047990
H        1.81335927       0.18075993      -2.75403897
H        1.43532946       0.14402994      -1.02527962
H        2.51547894      -1.08291958      -1.73999926
H        3.06493884       1.80939932      -1.54899938
H        4.20854825      -0.45449982      -0.06990998
H        3.16462886       0.82632967       0.56644979
H        4.73385802       1.77796931       2.21337913
H        6.44148759       2.01268923       1.81340923
H        5.76628751       0.37944984       1.88439923
H        6.18052762       1.07342953      -1.82177932
H        6.62912718      -0.03761999      -0.52113981
H        7.28267724       1.60408936      -0.54543981
H        4.78315800       2.94572872      -1.26243952
H        5.74186790       3.45964876      -0.05935998
