10
Properties=species:S:1:pos:R:3 atomization_energy=-1018.13 smiles=C.C.C.C.N.H.H.H.H.H pbc="F F F"
C        0.98947961      -0.00953000      -0.07032997
C        2.18992923      -0.01668999      -0.03125999
C        3.62009864      -0.02379999       0.01762000
C        4.38114838      -0.77527971      -1.04402960
N        4.35007833       0.68061972      -1.03532959
H       -0.07430997       0.00360000      -0.11336996
H        4.06297835       0.02349999       1.00746957
H        3.83038848      -1.25500950      -1.84397929
H        5.31765767      -1.24605956      -0.77462971
H        5.21693814       1.06926960      -0.66376974
