13
Properties=species:S:1:pos:R:3 atomization_energy=-1300.09 smiles=C.C.C.C.C.H.H.H.H.H.H.H.H pbc="F F F"
C        0.99318958      -0.03170999       0.01060000
C        2.51999896       0.00000000       0.00000000
C        3.06008878      -0.76414970      -1.20840947
C        3.00201878       1.36116943       0.00000000
C        3.39929870       2.48306901       0.00000000
H        0.59524975       0.48826981       0.89012967
H        0.62431976      -1.06315953       0.03687999
H        0.57370975       0.45472982      -0.87830965
H        2.87491876      -0.50615982       0.90627963
H        2.73216892      -0.30990987      -2.15020926
H        2.71684887      -1.80377927      -1.19627952
H        4.15563842      -0.77265969      -1.20880954
H        3.75494850       3.48765854      -0.00016000
