15
Properties=species:S:1:pos:R:3 atomization_energy=-1412.16 smiles=O.C.C.C.N.C.H.H.H.H.H.H.H.H.H pbc="F F F"
O        2.26925915      -0.39677983      -1.38517950
C        2.38281907       0.03148998      -0.03369999
C        3.14114868       1.33971950      -0.00273000
C        2.39151895       2.59445888      -0.49136980
N        3.00693873       3.35051877       0.62837977
C        3.18067864       2.07015919       1.35391944
H        1.78293935      -1.23945946      -1.37822942
H        2.92078880      -0.73920972       0.52753978
H        1.37637945       0.13254994       0.38564985
H        4.14169838       1.24494956      -0.45021984
H        1.29872955       2.54307894      -0.42509982
H        2.66567887       2.95109883      -1.48841944
H        3.89375845       3.78478843       0.36717986
H        4.11834840       1.98357916       1.91048927
H        2.34931906       1.84431931       2.03152917
