19
Properties=species:S:1:pos:R:3 atomization_energy=-1900.44 smiles=C.C.C.C.C.C.C.H.H.H.H.H.H.H.H.H.H.H.H pbc="F F F"
C        0.95898961       1.72983927       1.28492955
C        2.44464906       1.57093934       1.24504948
C        3.13808866       1.34650948       0.11892995
C        4.61501808       1.19015949       0.09268996
C        5.47623777       2.27575921       0.78704970
C        6.45206734       1.14335961       1.17503954
C        5.25753773       0.17030992       1.06693957
H        0.70051970       2.71264882       1.69075934
H        0.51999981       0.96388963       1.93146923
H        0.50541979       1.64002940       0.29273990
H        2.95232895       1.64839936       2.20335906
H        2.62252897       1.27031945      -0.83539965
H        4.94919802       1.01802957      -0.94162960
H        5.02149799       2.76915891       1.65350932
H        5.89128787       3.04278869       0.12703995
H        7.23659701       0.96297960       0.43114984
H        6.90952726       1.22722947       2.16383919
H        5.49134787      -0.80872969       0.63907975
H        4.73577826       0.02018999       2.01886921
