15
Properties=species:S:1:pos:R:3 atomization_energy=-1419.64 smiles=N.C.C.C.O.C.H.H.H.H.H.H.H.H.H pbc="F F F"
N        1.02231958       0.00856000       0.14494994
C        2.46003899       0.02516999      -0.08036996
C        3.10902867       1.06601957       0.85145965
C        4.14769832      -0.01595999       1.23228947
O        5.40513789       0.01829999       0.52518979
C        3.12119887      -1.07680964       0.76953968
H        0.54738976      -0.78788971      -0.27991990
H        0.54052976       0.83724968      -0.20277993
H        2.78150901       0.06732997      -1.12524954
H        2.50656913       1.39868944       1.70585935
H        3.51336857       1.94852922       0.34666987
H        4.34836853      -0.05576998       2.30863897
H        5.18009777       0.05090998      -0.41957982
H        3.53496863      -1.91361919       0.19888993
H        2.52267896      -1.48052943       1.59564938
