17
Properties=species:S:1:pos:R:3 atomization_energy=-1747.29 smiles=C.C.C.C.C.C.C.H.H.H.H.H.H.H.H.H.H pbc="F F F"
C        3.01707892      -1.16367959      -0.51368979
C        2.44214896       0.06823998       0.16605994
C        3.42690853       1.19792952       0.17562994
C        3.54014849       2.12241926      -1.00672961
C        2.93443892       2.62285902       0.28077990
C        3.68394854       3.54942873       1.07751957
C        4.30944845       4.32623807       1.74581928
H        2.28972902      -1.98117924      -0.50059979
H        3.92513836      -1.50477947      -0.00555000
H        3.27646863      -0.95160962      -1.55612938
H        2.17652918      -0.17924992       1.19999952
H        1.51576938       0.36050986      -0.34243985
H        4.33916854       0.93658966       0.70239969
H        2.87573884       1.97442925      -1.85047922
H        4.53037809       2.46578912      -1.28568945
H        1.85934930       2.78017897       0.27910988
H        4.86538821       5.01460783       2.33831919
