15
Properties=species:S:1:pos:R:3 atomization_energy=-1481.53 smiles=N.C.C.N.C.C.C.H.H.H.H.H.H.H.H pbc="F F F"
N        0.98970961      -0.31744988      -0.21552991
C        2.31221905       0.13278996       0.24348990
C        3.50106868      -0.70920974      -0.39917985
N        4.30564834       0.59504978      -0.16951994
C        2.99119881       1.16119955      -0.76504970
C        3.02594886       0.56875976      -2.12822919
C        3.37158869      -0.69989972      -1.88000930
H        0.22922990       0.30832987       0.04391998
H        0.73188971      -1.24508948       0.11627995
H        2.37651911       0.35080987       1.31537950
H        3.87309857      -1.60714937       0.09297996
H        4.45514805       0.82806968       0.81001967
H        2.82833892       2.23336906      -0.65864975
H        2.81863880       1.04695960      -3.06861883
H        3.51671852      -1.51361939      -2.56800902
