19
Properties=species:S:1:pos:R:3 atomization_energy=-1777.07 smiles=C.C.C.C.N.N.C.H.H.H.H.H.H.H.H.H.H.H.H pbc="F F F"
C        3.42038854      -1.03688957      -1.20408956
C        2.73062894      -0.36380985      -0.02652999
C        2.72201889       1.15739957      -0.13750995
C        4.11465831       1.71901930      -0.03460999
N        4.63953811       2.34881920      -1.03588958
N        5.89711773       2.78919881      -0.79884966
C        6.55307756       3.43045858      -1.93281920
H        3.32780871      -2.12486915      -1.12353962
H        4.48750803      -0.79436971      -1.23228947
H        2.97144885      -0.72749972      -2.15368916
H        3.22407861      -0.67297976       0.90283966
H        1.69432932      -0.71864970       0.02442999
H        2.14097924       1.57845944       0.68988974
H        2.25758908       1.47719941      -1.07629955
H        4.65203810       1.55580943       0.91769964
H        5.92732784       3.42835868      -0.00082000
H        6.61055761       2.74656896      -2.78589882
H        7.57387710       3.71426866      -1.65949941
H        6.01343739       4.33271845      -2.23820903
