7
Properties=species:S:1:pos:R:3 atomization_energy=-708.37 smiles=C.C.C.H.H.H.H pbc="F F F"
C        0.99999962       0.00000000       0.00000000
C        2.44399905       0.00000000       0.00000000
C        3.63415853       0.00000000       0.00000000
H        0.59837979       1.01817959       0.03529999
H        0.61954975      -0.50799982       0.89309967
H        0.56303979      -0.49706980      -0.87058964
H        4.70053819      -0.00000000      -0.00000000
