18
Properties=species:S:1:pos:R:3 atomization_energy=-1771.51 smiles=C.N.C.C.C.C.C.H.H.H.H.H.H.H.H.H.H.H pbc="F F F"
C        0.94779960       0.07040997       0.08688997
N        2.39007914      -0.09702996      -0.00176000
C        3.07144873       1.19892951      -0.00117000
C        4.57298827       1.02719960      -0.14966994
C        5.16398794       1.24171947      -1.34016953
C        5.40107788       0.67514975       0.99716960
C        4.97558783       0.40284985       2.23689918
H        0.46212981      -0.90939964       0.03490999
H        0.55797979       0.68030973      -0.73519973
H        0.66285977       0.52914978       1.03935958
H        2.62419889      -0.58126978      -0.86779968
H        2.84884891       1.75560935       0.91784965
H        2.69030893       1.81429934      -0.82669965
H        4.58502800       1.51481935      -2.21682900
H        6.23576747       1.13939952      -1.48051946
H        6.47640722       0.62854978       0.82087969
H        3.92539852       0.40223984       2.50942905
H        5.68543754       0.15022994       3.01754876
