13
Properties=species:S:1:pos:R:3 atomization_energy=-1310.11 smiles=C.N.C.C.C.O.H.H.H.H.H.H.H pbc="F F F"
C        0.99727962       0.10409996      -0.12910995
N        2.45061896       0.07081997      -0.04159999
C        3.15223864      -1.12072953      -0.13073995
C        2.61358887      -2.33306918      -0.30000988
C        3.12191876       1.27740945       0.13635995
O        2.61463907       2.38877913       0.22953991
H        0.60784979       1.12241952      -0.04292998
H        0.57243976      -0.49371979       0.68353970
H        0.68367975      -0.30027987      -1.09678960
H        4.23583838      -1.04231961      -0.05394998
H        1.54702944      -2.50389896      -0.38593984
H        3.25300864      -3.20897885      -0.35776986
H        4.21672832       1.15241956       0.19118992
