19
Properties=species:S:1:pos:R:3 atomization_energy=-1777.9 smiles=C.C.C.N.N.C.C.H.H.H.H.H.H.H.H.H.H.H.H pbc="F F F"
C        2.15034906      -0.22044991       0.46277981
C        2.82053885      -0.50784981      -0.88646967
C        2.01275925      -1.55828934      -1.69272929
N        1.96077927      -2.87286883      -1.04383959
N        2.88589896       0.75652973      -1.64933929
C        4.08619838       1.54566937      -1.37182941
C        3.93569843       0.78562971      -2.66389893
H        2.70643895       0.53516980       1.02829958
H        2.10871919      -1.12234950       1.08207957
H        1.12492958       0.14378994       0.33079987
H        3.82220840      -0.91637963      -0.68979972
H        2.46045912      -1.69062939      -2.68490904
H        0.98614960      -1.20466954      -1.84676932
H        2.90339889      -3.25120876      -0.96695962
H        1.44248948      -3.51534861      -1.64172936
H        4.79460828       1.18156950      -0.63905976
H        3.95635855       2.61975888      -1.39492945
H        3.70509844       1.34991949      -3.55992848
H        4.54003835      -0.09925996      -2.81790881
