20
Properties=species:S:1:pos:R:3 atomization_energy=-1908.95 smiles=C.N.C.C.C.C.C.H.H.H.H.H.H.H.H.H.H.H.H.H pbc="F F F"
C        1.07413959      -0.00792000       0.19175993
N        2.51726899       0.01429999      -0.00504000
C        3.15338876       1.03961960       0.85697965
C        4.26049821      -0.00268000       1.18856955
C        4.67874837      -0.04206998       2.65373906
C        5.47417774       0.03905998       0.25792990
C        3.17689872      -1.04784958       0.79254971
H        0.64209972      -0.87576963      -0.31863987
H        0.62355974       0.88654966      -0.25276990
H        0.77189967      -0.05027998       1.24553951
H        2.56236890       1.36272946       1.72452934
H        3.48879857       1.93462930       0.32261986
H        3.81121862      -0.07138997       3.32163871
H        5.26831783       0.84324968       2.91462889
H        5.28756767      -0.92836966       2.86179880
H        5.18158804       0.06517997      -0.79727972
H        6.10552771      -0.84385969       0.40411983
H        6.08300765       0.92797961       0.45435983
H        3.53226869      -1.90018923       0.20418992
H        2.59453887      -1.43714940       1.63829942
