14
Properties=species:S:1:pos:R:3 atomization_energy=-1384.38 smiles=C.C.N.N.C.C.N.H.H.H.H.H.H.H pbc="F F F"
C        0.22248991       0.63804974       0.79350970
C        1.11609950       0.07285997      -0.26595989
N        2.34584901      -0.23070991       0.00226000
N        3.02435893      -0.72676972      -1.06252958
C        4.40480847      -1.16315954      -0.79188967
C        5.05756824      -1.69718937      -2.00042921
N        5.57617761      -2.09580917      -2.96147873
H       -0.63985977      -0.02188999       0.91752963
H       -0.13191995       1.61994938       0.46970981
H        0.75253968       0.73345972       1.74420928
H        0.67013971      -0.06952997      -1.26748955
H        3.03742893      -0.06555997      -1.84465933
H        4.39407834      -1.93632925      -0.01538000
H        4.98602779      -0.31651988      -0.40886984
