12
Properties=species:S:1:pos:R:3 atomization_energy=-1248.43 smiles=C.N.N.C.C.C.N.H.H.H.H.H pbc="F F F"
C        1.47483948      -0.44538984      -0.32684988
N        2.72240899      -0.24740990      -0.06166998
N        3.05017872       1.09493951      -0.20799992
C        4.28474825       1.29733946       0.12366996
C        4.88709829       2.66450907       0.03849999
C        5.36408814       3.07512873       1.35633943
N        5.76326761       3.40301856       2.39760896
H        1.05423961      -1.46016945      -0.25689990
H        0.78652971       0.36310985      -0.62697977
H        4.94073786       0.47361981       0.46159982
H        4.14918833       3.37474863      -0.34754987
H        5.72157794       2.61861909      -0.66849975
