20
Properties=species:S:1:pos:R:3 atomization_energy=-1906.86 smiles=C.N.C.C.C.C.C.H.H.H.H.H.H.H.H.H.H.H.H.H pbc="F F F"
C        2.13405905      -0.44498983      -1.34143952
N        2.27889922       0.14602995      -0.01518999
C        3.19518870       1.28559950      -0.08356997
C        2.42008915       2.55891903      -0.49469981
C        3.18396879       3.29043870       0.63231974
C        3.31056868       1.91302924       1.33684948
C        4.60634797       1.66074933       2.08183923
H        1.43035941      -1.28140953      -1.29052954
H        3.08883889      -0.83014965      -1.71370937
H        1.73446929       0.27569990      -2.06177914
H        2.58845895      -0.57998977       0.63154975
H        4.14971848       1.12307962      -0.59782977
H        1.33555944       2.53525894      -0.33178987
H        2.61612909       2.92662876      -1.50549937
H        4.13595835       3.72582846       0.30450989
H        2.61415889       4.05033832       1.17339951
H        2.44679892       1.71707938       1.98929926
H        5.48075804       1.87326928       1.45758949
H        4.66731827       0.61628976       2.40443906
H        4.66623829       2.29237900       2.97398881
