19
Properties=species:S:1:pos:R:3 atomization_energy=-1781.56 smiles=C.N.C.C.C.C.N.H.H.H.H.H.H.H.H.H.H.H.H pbc="F F F"
C        2.81958883      -1.00147961      -0.69305971
N        2.28460922       0.19219993      -0.05168998
C        3.27964876       1.27018950       0.03584998
C        3.41133868       2.30746917      -1.05054958
C        2.56566889       2.28495920      -2.27894918
C        2.79891886       2.68718885       0.26880991
N        3.52957859       3.57348851       1.17697959
H        2.03732925      -1.76336930      -0.75948971
H        3.65417850      -1.41970939      -0.12138995
H        3.15982876      -0.78556972      -1.71062929
H        1.94437925      -0.05092998       0.87867964
H        4.20138835       0.98569963       0.54060982
H        4.41000851       2.66338897      -1.27507955
H        1.52923945       1.99919923      -2.07268919
H        2.97757873       1.57878936      -3.00667883
H        2.55327892       3.27733867      -2.74082893
H        1.72153933       2.84392895       0.27875990
H        4.53273840       3.40054874       1.14157953
H        3.24567867       3.40340866       2.14110919
