13
Properties=species:S:1:pos:R:3 atomization_energy=-1286.23 smiles=C.C.O.N.C.C.H.H.H.H.H.H.H pbc="F F F"
C        1.90271924       0.47037981      -1.31073951
C        2.56423893       0.26037990       0.03199999
O        2.39040894      -0.79173966       0.65045976
N        3.31435870       1.29257948       0.57122977
C        4.34458811       1.98213924      -0.14141995
C        3.10507868       2.67999892       0.29575989
H        2.53062892       1.03892960      -1.99859918
H        0.95122960       0.98695958      -1.16679954
H        1.71279934      -0.50493979      -1.76929934
H        4.47959845       1.70973932      -1.17808960
H        5.25044773       2.10696915       0.43702982
H        3.13566880       3.29916861       1.18239954
H        2.34640918       2.92982882      -0.43163984
