20
Properties=species:S:1:pos:R:3 atomization_energy=-1919.51 smiles=C.C.C.C.C.C.N.H.H.H.H.H.H.H.H.H.H.H.H.H pbc="F F F"
C        0.91821963       0.14800994       0.05892998
C        2.42202907      -0.08218997       0.04800998
C        3.18726877       1.24036949      -0.03343999
C        4.68695822       1.03286961      -0.03414999
C        5.38606771       1.04590959      -1.18301952
C        5.35831783       0.81169969       1.29593952
N        5.26232799       2.00419917       2.12598925
H        0.38792985      -0.80919966       0.09138996
H        0.59556977       0.68469973      -0.83931968
H        0.61848977       0.73224973       0.93506962
H        2.67925884      -0.71598969      -0.80942966
H        2.70287906      -0.63429978       0.95203965
H        2.89899874       1.89437931       0.79805967
H        2.88563881       1.77269925      -0.94489962
H        4.89729802       1.20186955      -2.13983921
H        6.46131730       0.89812965      -1.19881949
H        6.41670766       0.55610977       1.16452957
H        4.89245831      -0.03344999       1.81358928
H        5.72372780       2.77293884       1.64142933
H        5.78899783       1.85391925       2.98382872
