19
Properties=species:S:1:pos:R:3 atomization_energy=-1791.15 smiles=C.C.C.C.N.C.N.H.H.H.H.H.H.H.H.H.H.H.H pbc="F F F"
C        1.13496959      -0.81059965       0.01396999
C        2.51051912      -0.24071990      -0.12293995
C        2.88155886       1.05204957       0.00417000
C        1.93222925       2.18656919       0.28348988
N        1.86458921       2.44293901       1.71907936
C        4.33021834       1.44857937      -0.13378994
N        4.57969826       2.00704925      -1.45830939
H        1.15469950      -1.64387934       0.72356972
H        0.79442970      -1.19437947      -0.95251965
H        0.39939985      -0.09033997       0.37786984
H        3.27978881      -0.98146961      -0.33891986
H        0.92874966       1.97699925      -0.10035996
H        2.26189915       3.09609872      -0.23122991
H        1.48113943       1.61678931       2.17406920
H        1.19565955       3.19290863       1.88327926
H        4.99150792       0.58746975       0.02089999
H        4.59638795       2.18392905       0.63385978
H        4.41318840       1.27874946      -2.15053906
H        5.56667784       2.24493921      -1.53039942
