13
Properties=species:S:1:pos:R:3 atomization_energy=-1431.25 smiles=N.C.C.C.C.N.C.H.H.H.H.H.H pbc="F F F"
N        0.99451962      -0.00806000       0.25121990
C        2.37098902      -0.02560999      -0.00409000
C        3.09746888       1.16313960      -0.04786998
C        4.48608841       1.13151959      -0.17277993
C        5.11512803      -0.10169996      -0.20698992
N        4.46129838      -1.27616950      -0.10983995
C        3.11387874      -1.20580957       0.01698999
H        0.52652979       0.82681969      -0.08821997
H        0.51407980      -0.85672966      -0.03285999
H        2.59051898       2.12196910       0.01546999
H        5.06207790       2.04841921      -0.22631991
H        6.19478736      -0.17697992      -0.30259987
H        2.62457891      -2.16756915       0.13910994
