10
Properties=species:S:1:pos:R:3 atomization_energy=-1062.9 smiles=C.C.C.C.N.H.H.H.H.H pbc="F F F"
C        0.87880965      -0.13769994      -0.12835995
C        2.18019909       0.05729998       0.12532995
C        2.87378882       1.38977950       0.04951998
C        3.48346858       1.73685938       1.34243951
N        3.97611836       2.01818917       2.35570910
H        0.44279981      -1.13044958      -0.05615998
H        0.21637992       0.67647973      -0.40719985
H        2.79383893      -0.80037967       0.39857984
H        2.17494908       2.17850922      -0.25178989
H        3.65019848       1.33755942      -0.72200974
