15
Properties=species:S:1:pos:R:3 atomization_energy=-1460.93 smiles=C.C.N.C.C.O.H.H.H.H.H.H.H.H.H pbc="F F F"
C        2.74763884      -0.97659962       1.28973949
C        2.91916884      -0.34508987      -0.08010997
N        3.29862862       1.04853958       0.01392000
C        4.60548803       1.43348945       0.20731992
C        4.80033822       2.92180873       0.32201988
O        5.54345781       0.64777976       0.29220988
H        2.42336895      -2.01727927       1.19175952
H        1.99848916      -0.43671983       1.87869932
H        3.68676859      -0.96288964       1.85276926
H        1.97688923      -0.38756983      -0.63535976
H        3.67958851      -0.88782967      -0.65116976
H        2.56507894       1.74347929       0.05571998
H        3.89497847       3.47208869       0.05189998
H        5.60235798       3.22934880      -0.35456986
H        5.07045782       3.16861872       1.35201951
