19
Properties=species:S:1:pos:R:3 atomization_energy=-1777.96 smiles=C.C.N.C.N.C.C.H.H.H.H.H.H.H.H.H.H.H.H pbc="F F F"
C        2.78611885      -1.29138949       0.96077965
C        2.46015910      -0.23911990      -0.10242996
N        0.99896960      -0.06886998      -0.17784993
C        3.14443883       1.11970961       0.18774993
N        4.61128811       0.99433958       0.21180992
C        5.26411803       1.48975945      -0.99643960
C        5.29060776       2.28495920       0.28282987
H        3.85873840      -1.51567942       0.98039960
H        2.26390922      -2.23250912       0.75550969
H        2.49331896      -0.95390962       1.96077927
H        2.80079898      -0.60675978      -1.07782956
H        0.64405976       0.20822992       0.73735969
H        0.56891980      -0.97159961      -0.37831985
H        2.81354877       1.48564935       1.16915959
H        2.80015882       1.85867923      -0.54996979
H        4.65419805       1.84733921      -1.81734926
H        6.16915757       0.97100960      -1.29014953
H        6.20979754       2.29912912       0.85450964
H        4.68985801       3.18317874       0.34911985
