13
Properties=species:S:1:pos:R:3 atomization_energy=-1383.0 smiles=N.C.C.C.C.C.N.H.H.H.H.H.H pbc="F F F"
N        1.16838948      -0.09231997      -0.12333995
C        2.44028902       0.12681995      -0.12791995
C        2.98629879       1.43558948       0.30292989
C        4.29944806       1.28551950       0.08529997
C        4.67918793      -0.03252999      -0.43093984
C        4.40698811      -1.25277952       0.38594984
N        3.39583873      -0.78884971      -0.56570977
H        1.03422962      -1.04400960      -0.48401980
H        2.41542910       2.26913904       0.66408976
H        5.03028820       2.06097913       0.27380988
H        5.27990791      -0.08684997      -1.32869944
H        4.86722821      -2.18517910       0.08873997
H        4.11818843      -1.17216953       1.42570945
