17
Properties=species:S:1:pos:R:3 atomization_energy=-1638.51 smiles=C.C.C.C.C.N.N.H.H.H.H.H.H.H.H.H.H pbc="F F F"
C        3.34512872      -1.54572942      -0.94365960
C        2.91748882      -0.59011979       0.13674995
C        2.15687914      -0.99178958       1.16986953
C        3.34959877       0.84694967      -0.02427999
C        4.84955796       0.94893963       0.10670996
N        5.57820786       1.30432954      -0.90501961
N        6.89834747       1.34500950      -0.61464973
H        3.02918880      -1.17729955      -1.92479923
H        2.90815886      -2.54048901      -0.80708966
H        4.43342839      -1.66042938      -0.94718966
H        1.83330934      -2.02329926       1.26974956
H        1.82823925      -0.29999988       1.94008924
H        2.91049873       1.48533936       0.74975969
H        3.02881888       1.23129957      -0.99868958
H        5.28184783       0.71596969       1.09873962
H        7.38578686       1.85711932      -1.35569951
H        7.30013705       0.40362984      -0.65510973
