20
Properties=species:S:1:pos:R:3 atomization_energy=-1907.26 smiles=C.C.C.C.N.C.C.H.H.H.H.H.H.H.H.H.H.H.H.H pbc="F F F"
C        0.86576967      -0.51869980       0.14609994
C        2.37034911      -0.40200983      -0.11126995
C        2.77841897      -1.35922950      -1.23347946
C        2.73441895       1.06421957      -0.42428984
N        4.17506844       1.23027952      -0.65361977
C        4.64871792       2.58731892      -0.40236985
C        4.94361797       1.46708938       0.56213979
H        0.56351979       0.11891995       0.98302959
H        0.59155978      -1.54901945       0.39554984
H        0.28759988      -0.21824991      -0.73502972
H        2.89087897      -0.70866975       0.80516967
H        2.29107899      -1.09557955      -2.17764903
H        2.49678902      -2.38820911      -0.98342960
H        3.86145853      -1.34916943      -1.39399949
H        2.36350917       1.70534939       0.38762986
H        2.20744910       1.38299949      -1.33273951
H        3.93337849       3.34626876      -0.11167995
H        5.45129786       2.93151894      -1.04290956
H        5.94573742       1.05181957       0.56991979
H        4.43047813       1.44939945       1.51537940
