14
Properties=species:S:1:pos:R:3 atomization_energy=-1267.3 smiles=C.C.S.C.O.O.H.H.H.H.H.H.H.H pbc="F F F"
C        1.01719959      -0.04526998      -0.05947998
C        2.52593908       0.07316997       0.00749000
S        3.10302874       1.76161925       0.07637997
C        2.59914896       2.46303896      -1.47665942
O        2.38502899       2.44927908       1.13185961
O        4.55386812       1.71909929       0.07684997
H        0.72149972      -1.09880951      -0.05144998
H        0.62088976       0.40645983      -0.97279964
H        0.54144976       0.44700984       0.79388971
H        2.99522880      -0.39911986      -0.86096964
H        2.90229897      -0.42026982       0.90952966
H        2.99436885       1.84808927      -2.28721908
H        3.01201891       3.47222874      -1.54061934
H        1.50972945       2.50920902      -1.51626937
