15
Properties=species:S:1:pos:R:3 atomization_energy=-1518.37 smiles=C.C.C.C.C.N.N.H.H.H.H.H.H.H.H pbc="F F F"
C        0.99999962       0.00000000       0.00000000
C        2.44399905       0.00000000       0.00000000
C        3.63415853       0.00000000       0.00000000
C        5.07815797       0.00000000       0.00000000
C        5.62813766       1.41714949      -0.08214997
N        5.79847791       2.00871918      -1.29884953
N        5.91600775       2.10886921       0.97486963
H        0.60604978       1.02089959       0.01148999
H        0.60591977      -0.52034979       0.87834965
H        0.60593976      -0.50041982      -0.88985968
H        5.46335778      -0.56828980      -0.85398965
H        5.46632772      -0.47606982       0.90699966
H        5.13138775       1.74883931      -2.01618919
H        5.91781747       3.01295885      -1.20811954
H        5.72167787       1.56256938       1.82109928
