22
Properties=species:S:1:pos:R:3 atomization_energy=-2056.74 smiles=C.C.C.C.C.N.C.H.H.H.H.H.H.H.H.H.H.H.H.H.H.H pbc="F F F"
C        1.47198940       0.55749980      -2.21364913
C        2.50054901       1.48613938      -1.58362933
C        3.87929835       0.82135969      -1.51398944
C        4.96236820       1.68689930      -0.82956966
C        6.21767734       0.83133964      -0.61770976
N        5.24369787       2.87873881      -1.64513936
C        6.19349745       3.79431848      -1.02649958
H        0.49213982       1.04362959      -2.24578907
H        1.37355952      -0.36841985      -1.63908934
H        1.75625936       0.29847987      -3.23808880
H        2.16912906       1.75838929      -0.57454976
H        2.54064899       2.40752911      -2.17432910
H        4.20600828       0.55074981      -2.52677909
H        3.77702849      -0.12082995      -0.95992961
H        4.58197832       1.99755920       0.15219994
H        6.67370755       0.54788976      -1.57287939
H        5.97195767      -0.08967996      -0.07759997
H        6.97002721       1.35651946      -0.02077999
H        4.37553805       3.38600866      -1.80887926
H        7.20445708       3.37735874      -1.00771964
H        5.89201761       4.06787837      -0.01017999
H        6.24315775       4.71427812      -1.61833938
