17
Properties=species:S:1:pos:R:3 atomization_energy=-1660.82 smiles=C.C.C.C.N.C.N.H.H.H.H.H.H.H.H.H.H pbc="F F F"
C        0.89310964       1.76718934       1.51860937
C        1.67889939       1.76255931       0.43448982
C        2.77527895       0.75794973       0.18942993
C        4.16132824       1.40069939       0.04894998
N        4.60508833       1.95848924       1.31396947
C        5.85545784       2.44662910       1.54324939
N        6.92439714       2.25442914       0.86167964
H        0.10708996       2.50844900       1.63302935
H        1.00412959       1.03190962       2.31047898
H        1.51602941       2.51353902      -0.33779986
H        2.53887889       0.22381990      -0.73856974
H        2.79702890       0.00914999       0.99081962
H        4.14449825       2.18620911      -0.71533975
H        4.86383789       0.62681973      -0.28124990
H        3.86440854       2.40217893       1.85190931
H        5.90274775       3.07340884       2.45037900
H        6.72987750       1.63835935       0.07278997
