17
Properties=species:S:1:pos:R:3 atomization_energy=-1667.04 smiles=C.N.C.C.C.C.N.H.H.H.H.H.H.H.H.H.H pbc="F F F"
C        1.40909950       0.01049999       1.06358962
N        2.83523892       0.28153989       1.21441949
C        3.20725871       1.66870937       0.86134965
C        2.55991902       2.68137892       1.81761926
C        4.74626818       1.79050929       0.90286963
C        5.21038812       3.06233882       0.32898987
N        5.57480795       4.06451832      -0.12860995
H        1.22947951      -1.05841961       1.21846953
H        1.05241961       0.26651991       0.06096998
H        0.81271968       0.54161977       1.81059927
H        3.34148860      -0.36922986       0.61157974
H        2.86631881       1.87941922      -0.16128993
H        2.82121889       2.46725895       2.85997899
H        1.46866948       2.67672897       1.73199935
H        2.88380890       3.70338864       1.59503937
H        5.19921792       0.97359959       0.32645987
H        5.11017779       1.69051937       1.93272924
