13
Properties=species:S:1:pos:R:3 atomization_energy=-1295.84 smiles=N.C.C.O.C.C.H.H.H.H.H.H.H pbc="F F F"
N        0.98559958       0.03014999      -0.13253994
C        2.43745913       0.03050999      -0.00301000
C        3.01146884      -1.22618949       0.68738971
O        3.67805862      -0.83431967       1.90776927
C        3.54637855       0.53521977       1.93481918
C        2.88025885       1.08928956       0.92840965
H        0.69050972      -0.76617970      -0.69227970
H        0.69187976       0.86378963      -0.63654975
H        2.89032889       0.15660993      -0.99230964
H        3.74630842      -1.72093929       0.04213998
H        2.23820903      -1.96363919       0.93578964
H        3.99492839       1.01762963       2.78747892
H        2.69301896       2.14304911       0.81300967
