18
Properties=species:S:1:pos:R:3 atomization_energy=-1761.56 smiles=C.N.C.C.C.C.C.H.H.H.H.H.H.H.H.H.H.H pbc="F F F"
C        1.07527963      -0.14807993      -0.16656993
N        2.48965889       0.00240000       0.14589994
C        2.96069877       1.38567949       0.00000000
C        2.44228900       2.28106901       1.12885952
C        4.40469846       1.38567949       0.00000000
C        5.59485769       1.38567949       0.00000000
C        7.03885712       1.38567949       0.00000000
H        0.80635967      -1.20764957      -0.11105996
H        0.84474966       0.20064992      -1.17792949
H        0.44057984       0.37991984       0.55081977
H        3.02688879      -0.58254979      -0.49444982
H        2.61775890       1.79251924      -0.95990961
H        2.71902902       1.88768925       2.11391911
H        1.35337945       2.38269896       1.09738952
H        2.86440892       3.28956866       1.04999957
H        7.43287692       2.40654905      -0.01158000
H        7.43288701       0.86517966      -0.87826966
H        7.43282696       0.88528964       0.88991967
