20
Properties=species:S:1:pos:R:3 atomization_energy=-1917.15 smiles=C.C.C.C.N.C.C.H.H.H.H.H.H.H.H.H.H.H.H.H pbc="F F F"
C        0.94876962      -0.20815991       0.06218998
C        2.45660906      -0.32541986       0.22594991
C        3.15897866       0.99318958      -0.11475995
C        4.69341841       0.89840967      -0.02254999
N        5.29562814       2.15205910      -0.47614981
C        5.17215792       0.63484974       1.37727951
C        5.88219789      -0.44060983       1.74582937
H        0.46576982      -1.15963951       0.30630986
H        0.68411975       0.05248998      -0.96763959
H        0.54101979       0.56013975       0.72711971
H        2.82752894      -1.12332955      -0.42765985
H        2.67530884      -0.62044976       1.25796947
H        2.78639894       1.78378933       0.55065979
H        2.87793891       1.28513949      -1.13563953
H        5.03936809       0.10164996      -0.69263971
H        4.88955801       2.93025879       0.03997998
H        5.04830819       2.30653908      -1.45186939
H        4.92118824       1.37435941       2.13453924
H        6.17026733      -1.20455952       1.03080959
H        6.20280746      -0.56735977       2.77489895
