19
Properties=species:S:1:pos:R:3 atomization_energy=-1777.57 smiles=C.N.C.C.C.N.C.H.H.H.H.H.H.H.H.H.H.H.H pbc="F F F"
C        2.08183923      -0.45892981      -1.28553944
N        2.27805921       0.15018995       0.02584999
C        3.23579864       1.25335951      -0.08390997
C        2.50953907       2.54546902      -0.52842979
C        3.15673871       3.27469878       0.66665975
N        4.43184829       3.86528842       0.24862990
C        3.41004876       1.89662922       1.31324945
H        1.34941949      -1.26780951      -1.20327957
H        3.01331893      -0.88593965      -1.67129930
H        1.69255934       0.26239989      -2.01110926
H        2.57364887      -0.57616979       0.67883972
H        4.17826825       1.03463959      -0.59808974
H        1.41432944       2.51631895      -0.45462983
H        2.76680895       2.90922875      -1.52895937
H        2.50613891       3.95657833       1.21922956
H        5.05437776       3.24831881      -0.27034988
H        4.98184817       4.23362846       1.02401960
H        4.38673802       1.74219934       1.78378933
H        2.63953887       1.63624935       2.05110919
