13
Properties=species:S:1:pos:R:3 atomization_energy=-1307.18 smiles=C.C.O.C.C.N.H.H.H.H.H.H.H pbc="F F F"
C        0.95637962       0.03246999       0.34643987
C        2.43090911       0.02227999      -0.04097999
O        2.54639911      -0.53166978      -1.35178952
C        3.02738892       1.43281939       0.00000000
C        4.47090816       1.40105946      -0.01924999
N        5.62153768       1.37575947      -0.03458999
H        0.81565965       0.39646984       1.36914940
H        0.53570979      -0.97640961       0.27423988
H        0.37481985       0.66582977      -0.33321986
H        2.97041883      -0.64386976       0.64216974
H        1.93599920      -0.06779997      -1.95058925
H        2.69928889       1.94725923       0.91096965
H        2.66336903       2.01674924      -0.85362964
