17
Properties=species:S:1:pos:R:3 atomization_energy=-1649.46 smiles=N.C.C.C.C.N.C.H.H.H.H.H.H.H.H.H.H pbc="F F F"
N        1.08765963      -0.00744000      -0.00424000
C        2.55078892       0.00258000       0.03660998
C        3.14307876       1.03236962      -0.96539964
C        2.75405891       0.04463998      -2.10541920
C        3.18096882      -0.98858958      -1.00861957
N        4.63901831      -0.72468969      -0.87675965
C        4.63326818       0.74954968      -0.82882970
H        0.65960974       0.74153968       0.53818977
H        0.67634971      -0.87434963       0.33755986
H        2.96095893      -0.01478999       1.05129957
H        2.77867887       2.05715921      -0.98742961
H        3.35730875       0.07657997      -3.01958886
H        1.70242928       0.03250999      -2.40880894
H        2.85328893      -2.02493916      -1.07145958
H        5.04623806      -1.09129963      -0.01781999
H        5.21235782       1.16949948      -1.65772930
H        5.03715817       1.12354959       0.11754995
