19
Properties=species:S:1:pos:R:3 atomization_energy=-1791.17 smiles=C.C.N.C.C.C.N.H.H.H.H.H.H.H.H.H.H.H.H pbc="F F F"
C        2.13693916      -0.60861978       1.36858948
C        2.61588887      -0.10020996       0.01011000
N        1.54128940      -0.19377992      -0.97422960
C        3.06647881       1.32821951       0.09874996
C        4.32496834       1.73623927      -0.14330994
C        4.77969803       3.15567867      -0.07299997
N        5.85940783       3.26745864       0.89524966
H        2.94345875      -0.55971981       2.10867920
H        1.81099935      -1.65269933       1.30227947
H        1.29646954      -0.01820000       1.75198928
H        3.44258864      -0.73635970      -0.32829987
H        0.70376973       0.25546990      -0.60904975
H        1.29548949      -1.17371960      -1.10450955
H        2.31456901       2.06322917       0.37592985
H        5.07954781       1.00836958      -0.43395983
H        3.96290857       3.83006852       0.20620992
H        5.14238788       3.46535851      -1.05864960
H        5.49336804       3.03992877       1.81845927
H        6.15920765       4.23917823       0.94315961
