18
Properties=species:S:1:pos:R:3 atomization_energy=-1802.11 smiles=C.C.C.C.C.C.N.H.H.H.H.H.H.H.H.H.H.H pbc="F F F"
C        0.94791965      -0.07593997       0.01301000
C        2.46788902      -0.04247999       0.01642999
C        2.99725880       1.39144943       0.00680000
C        4.52672838       1.41925949       0.00339000
C        5.05845796       2.85217892       0.00583000
C        6.52658732       2.87028899      -0.00300000
N        7.68798685       2.88612883      -0.01034000
H        0.59170979      -1.11080951       0.02392999
H        0.54688977       0.41188983      -0.88114964
H        0.54210979       0.43235983       0.89348965
H        2.84131884      -0.58362977      -0.86070968
H        2.83692878      -0.56928979       0.90412964
H        2.62142905       1.92738928       0.88690967
H        2.61837888       1.91738927      -0.87804963
H        4.90191821       0.88600967      -0.87961963
H        4.90684825       0.88140967       0.88138968
H        4.69221832       3.38324866       0.89208966
H        4.68128834       3.39095864      -0.87099968
