11
Properties=species:S:1:pos:R:3 atomization_energy=-1163.19 smiles=C.C.C.C.C.H.H.H.H.H.H pbc="F F F"
C        0.99999962       0.00000000       0.00000000
C        2.44399905       0.00000000       0.00000000
C        3.63415853       0.00000000       0.00000000
C        5.04015789       0.00000000       0.00000000
C        5.74191786       1.13786951       0.00000000
H        0.60598979       1.02087959       0.01167999
H        0.60591977      -0.52051980       0.87824966
H        0.60591977      -0.50028980      -0.88992963
H        5.55446804      -0.95633963      -0.00000000
H        5.25560790       2.10879918       0.00000000
H        6.82681711       1.11896952       0.00000000
