15
Properties=species:S:1:pos:R:3 atomization_energy=-1509.8 smiles=C.N.C.N.C.C.C.H.H.H.H.H.H.H.H pbc="F F F"
C        1.10107961      -0.20867992      -0.30808987
N        2.47098891       0.00320000       0.08387996
C        3.10019885       1.20300958      -0.00437000
N        2.62311892       2.38532900      -0.09576996
C        4.53874843       1.20939949       0.00000000
C        5.72890766       1.20939949       0.00000000
C        7.17290709       1.20939949       0.00000000
H        0.81329966      -1.24433955      -0.10338996
H        0.97203962      -0.02195999      -1.37848944
H        0.42502983       0.44375981       0.25275991
H        3.07583879      -0.80236968      -0.03741998
H        1.60520933       2.33972896      -0.07367997
H        7.56695717       2.23025909      -0.01172000
H        7.56693698       0.68881973      -0.87822967
H        7.56694707       0.70910975       0.88994963
