20
Properties=species:S:1:pos:R:3 atomization_energy=-1913.58 smiles=C.C.C.C.C.N.C.H.H.H.H.H.H.H.H.H.H.H.H.H pbc="F F F"
C        0.30997986      -0.49355981       0.36404985
C        1.78144934      -0.09658996       0.30793989
C        2.09499919       1.33544942      -0.09168996
C        1.16729953       2.25547909      -0.41543982
C        3.56508866       1.70006935      -0.07624997
N        4.29071841       0.93818963      -1.08904959
C        5.70362760       1.28668944      -1.09299959
H        0.21757991      -1.54105941       0.66991974
H       -0.16787993      -0.39062986      -0.61563975
H       -0.24031991       0.11461995       1.08922963
H        2.28164912      -0.77723969      -0.39119984
H        2.21725923      -0.27961990       1.29781952
H        0.10596996       2.03417915      -0.42735983
H        1.44692937       3.26993881      -0.68466970
H        3.96675839       1.48855936       0.92282966
H        3.69509855       2.77544902      -0.25352989
H        3.88845848       1.15085952      -2.00093918
H        6.16988782       1.06680962      -0.12683995
H        5.85650754       2.34477912      -1.33174949
H        6.22364750       0.69309971      -1.85150924
