18
Properties=species:S:1:pos:R:3 atomization_energy=-1766.55 smiles=N.C.C.C.C.C.C.H.H.H.H.H.H.H.H.H.H.H pbc="F F F"
N        0.98799963      -0.13158995       0.33332987
C        2.36989895       0.15948993      -0.03426999
C        2.95402891       1.17485950       0.97022964
C        4.22883846       0.29973989       0.97957959
C        3.31706873      -0.90351963       0.60149974
C        3.90299856      -1.88448931      -0.34722986
C        4.89173815      -2.69458897       0.04871998
H        0.61530977      -0.96786959      -0.11593995
H        0.33859988       0.62194974       0.11013996
H        2.54022911       0.39935985      -1.08948953
H        2.46056914       1.22354947       1.94867923
H        3.08838873       2.19188909       0.59252975
H        4.96113783       0.58749977       0.21448991
H        4.73775805       0.22477992       1.94478929
H        2.90077894      -1.40033944       1.49054937
H        3.51065853      -1.94638920      -1.35758948
H        5.29550804      -2.65687907       1.05661960
H        5.32165813      -3.42013873      -0.63516976
