18
Properties=species:S:1:pos:R:3 atomization_energy=-1785.82 smiles=C.N.C.C.C.C.C.H.H.H.H.H.H.H.H.H.H.H pbc="F F F"
C        1.04806961       0.01017999      -0.02794999
N        2.49877891      -0.01056999       0.08244996
C        3.01516877       1.09156963       0.90289965
C        4.44081816       0.65640974       1.22113958
C        4.27538828      -0.82411969       1.38368948
C        5.10164799      -1.62627937       2.06771915
C        2.99471883      -1.24230954       0.71831971
H        0.70100973      -0.82046966      -0.65131977
H        0.71602975       0.93444964      -0.51170981
H        0.55248976      -0.06190997       0.94735960
H        2.44150905       1.21011952       1.83192934
H        2.99991888       2.04240919       0.36035985
H        5.10793810       0.86787967       0.37762985
H        4.82159814       1.14645949       2.12204909
H        4.90127830      -2.68893902       2.16493910
H        5.99633741      -1.23841948       2.54265906
H        3.16788873      -2.01248926      -0.04034998
H        2.30035898      -1.62084932       1.47722944
