15
Properties=species:S:1:pos:R:3 atomization_energy=-1496.97 smiles=C.C.C.C.N.N.C.H.H.H.H.H.H.H.H pbc="F F F"
C        1.42056947      -0.43329983       0.99328963
C        2.31302904      -0.14425994       0.03777998
C        2.93874873       1.20453946      -0.16082993
C        4.42540829       1.06675953       0.03275999
N        5.22245814       0.97352963      -0.98338960
N        6.54077742       0.83519968      -0.56297980
C        7.31470716       0.60733976      -1.57009933
H        1.00534961      -1.43333944       1.07714953
H        1.08089954       0.31089986       1.70680937
H        2.61551895      -0.92657961      -0.65715973
H        2.56482888       1.94158922       0.55717978
H        2.72684902       1.56325938      -1.17323954
H        4.79430801       1.02165961       1.07338954
H        8.39557668       0.47291981      -1.41158950
H        6.94702722       0.53388979      -2.60811909
