14
Properties=species:S:1:pos:R:3 atomization_energy=-1321.12 smiles=C.C.C.C.N.H.H.H.H.H.H.H.H.H pbc="F F F"
C        1.05380958       0.15045994       0.11552995
C        2.53325896      -0.04016998      -0.17751993
C        3.27629881       1.25692949      -0.08744996
C        3.82267850       1.73919937       1.23138953
N        4.70970790       1.22699947       0.19043992
H        0.52194979      -0.80259968       0.03260999
H        0.60179976       0.85741966      -0.58832975
H        0.90124966       0.54166979       1.12699958
H        2.65104896      -0.44936983      -1.18726953
H        2.94464874      -0.78048972       0.51905981
H        2.94267879       1.98825928      -0.81448965
H        3.70980846       1.11080951       2.10619916
H        3.85837858       2.80445879       1.42102946
H        5.18976812       1.99080921      -0.28922988
