16
Properties=species:S:1:pos:R:3 atomization_energy=-1606.14 smiles=C.C.C.C.N.C.C.H.H.H.H.H.H.H.H.H pbc="F F F"
C        1.38678950      -0.66178976      -0.86038966
C        2.56752908      -0.44699984      -0.80381970
C        4.01561829      -0.18430993      -0.74094973
C        4.45249807       0.17573994       0.68330970
N        5.89986764       0.43352983       0.71526972
C        6.24614737       1.85084926       0.77674967
C        6.35262763       0.97158965       1.99502920
H        0.34009986      -0.85393969      -0.91386963
H        4.26423826       0.63343977      -1.42824942
H        4.56031821      -1.07179960      -1.08554963
H        4.23202843      -0.66788974       1.35047941
H        3.85812851       1.02420961       1.05083958
H        5.45528772       2.58974887       0.73800969
H        7.16321707       2.13410927       0.27416990
H        7.33989689       0.65849974       2.31239896
H        5.62863778       1.09499957       2.79102897
