15
Properties=species:S:1:pos:R:3 atomization_energy=-1536.12 smiles=C.N.C.C.C.C.N.H.H.H.H.H.H.H.H pbc="F F F"
C        0.77589969       0.35386986      -0.11753995
N        2.20365908       0.19879992       0.07170997
C        3.10292882       1.23975948       0.06009998
C        4.44678832       1.20939949       0.00000000
C        5.25766793      -0.05253998      -0.05664997
C        5.14978774       2.42703911       0.00000000
N        5.72528772       3.42383866       0.00000000
H        0.26863990      -0.58843977       0.10944996
H        0.55482975       0.62471977      -1.15434952
H        0.37366985       1.12551953       0.54638978
H        2.57214901      -0.71737972      -0.16955993
H        2.59701903       2.20631916       0.11629996
H        4.65069822      -0.95944961       0.01566999
H        5.97745748      -0.08023997       0.76965973
H        5.81596750      -0.10344995      -0.99832963
