18
Properties=species:S:1:pos:R:3 atomization_energy=-1764.01 smiles=C.C.C.C.N.C.C.H.H.H.H.H.H.H.H.H.H.H pbc="F F F"
C        3.04876869      -1.46033939       1.27806955
C        2.79424896      -0.60386976       0.06804997
C        2.11519918      -1.07445955      -0.99328963
C        3.31179880       0.81660968       0.13118995
N        4.77299813       0.84457965       0.26446989
C        5.47407782       1.18543950      -0.97058959
C        5.33656788       2.18568906       0.14767994
H        4.12100848      -1.62734938       1.41852949
H        2.56967894      -2.44141897       1.19364948
H        2.65004897      -0.97605963       2.17541918
H        1.74167928      -2.09332913      -1.01882959
H        1.92290927      -0.45772981      -1.86467929
H        2.86781892       1.30033955       1.01213959
H        2.95404884       1.39066947      -0.73562970
H        4.89994801       1.33496949      -1.87684923
H        6.43556740       0.70687971      -1.11094955
H        6.20558765       2.38267902       0.76411967
H        4.66100797       3.02197894       0.01915999
