14
Properties=species:S:1:pos:R:3 atomization_energy=-1321.3 smiles=N.C.C.C.C.H.H.H.H.H.H.H.H.H pbc="F F F"
N        1.04564956       0.00857000       0.08151997
C        2.49313905       0.02972999      -0.07009997
C        3.09316890       1.06150953       0.91028961
C        4.15705829      -0.00781000       1.24683952
C        3.11485879      -1.06751955       0.82033971
H        0.59905977      -0.78475967      -0.37679986
H        0.58440979       0.84031967      -0.28497989
H        2.87155897       0.07774997      -1.09567959
H        2.46683907       1.32984944       1.77019928
H        3.47888851       1.97803923       0.45554983
H        5.04096787       0.02833999       0.59936975
H        4.47882833      -0.04850998       2.29030913
H        3.51972858      -1.93448926       0.29117989
H        2.49555891      -1.42000942       1.65458929
