19
Properties=species:S:1:pos:R:3 atomization_energy=-1793.48 smiles=C.C.N.C.N.C.C.H.H.H.H.H.H.H.H.H.H.H.H pbc="F F F"
C        3.23902873      -1.26554950      -1.03408957
C        3.24411876      -0.18222993       0.02972999
N        4.11641833       0.90390967      -0.42012984
C        4.19458828       1.87239923       0.42408983
N        4.93865814       3.01878871       0.27260989
C        4.70088791       4.16443848       1.13464951
C        5.54672802       3.30567875      -1.01988957
H        2.59039887      -2.09401913      -0.73382970
H        4.24803809      -1.65924935      -1.19571947
H        2.87664875      -0.87323962      -1.99007922
H        3.60796857      -0.60486975       0.97377963
H        2.22079918       0.18200993       0.17917994
H        3.64138858       1.85103927       1.38185945
H        4.53839819       3.84904838       2.17077906
H        3.81883852       4.71807823       0.79720970
H        5.55996785       4.84333799       1.13349951
H        6.05955749       2.42429905      -1.41969942
H        6.29520764       4.10076849      -0.93540963
H        4.78403813       3.62555858      -1.73738927
