15
Properties=species:S:1:pos:R:3 atomization_energy=-1540.62 smiles=N.C.C.C.C.N.C.H.H.H.H.H.H.H.H pbc="F F F"
N        0.99999962       0.00000000       0.00000000
C        2.15100915       0.00000000       0.00000000
C        3.59500859       0.00000000       0.00000000
C        4.19493826       1.12390954       0.82912966
C        5.57779757       0.58805976       1.14196951
N        5.34245780      -0.82432969       1.43240948
C        4.19507830      -1.25934947       0.62219974
H        3.96484849       0.09325996      -1.03003960
H        3.62869859       1.28986944       1.75575936
H        4.23117833       2.07147914       0.28207988
H        6.23706748       0.69077971       0.27163989
H        6.03789738       1.10153961       1.99056924
H        6.17180755      -1.38561944       1.24037946
H        4.51924827      -1.95531920      -0.16085993
H        3.48956869      -1.79383931       1.26841952
