19
Properties=species:S:1:pos:R:3 atomization_energy=-1805.58 smiles=N.C.C.C.C.N.C.H.H.H.H.H.H.H.H.H.H.H.H pbc="F F F"
N        0.98628958      -0.01005999       0.12310995
C        2.45052913      -0.00272000       0.01573999
C        2.93516891      -1.35430942      -0.52009979
C        2.60791898      -1.51624944      -2.00492916
C        3.12173886      -0.32988987      -2.82130897
N        2.62406894       0.94914964      -2.31778901
C        2.96436893       1.13657959      -0.90358965
H        0.64847972       0.92318961       0.34561986
H        0.69397971      -0.63150975       0.87255966
H        2.85904889       0.15451993       1.02124957
H        2.49965904      -2.18205902       0.05198998
H        4.02275851      -1.42194946      -0.38586985
H        3.05944886      -2.44212903      -2.37971918
H        1.52390946      -1.61624932      -2.14027927
H        4.21888828      -0.32630986      -2.82397889
H        2.80239901      -0.44811981      -3.86275854
H        3.01526869       1.71033936      -2.86830895
H        4.05462845       1.21902946      -0.80063970
H        2.54876901       2.09390911      -0.56632975
