17
Properties=species:S:1:pos:R:3 atomization_energy=-1637.48 smiles=N.C.C.C.C.C.N.H.H.H.H.H.H.H.H.H.H pbc="F F F"
N        0.88214963      -0.19397992      -0.72949969
C        2.23937909      -0.05945997      -0.15475993
C        3.35607864      -0.67617977      -0.97272962
C        3.20445885       0.81268965      -0.93145964
C        2.30397917      -0.08737997       1.39694949
C        1.64085932       0.96401964       2.25522903
N        1.07812958      -0.37485985       2.16233908
H        0.33168988       0.61400976      -0.43931982
H        0.42618983      -0.96743961      -0.23920991
H        3.09325873      -1.18757952      -1.89234930
H        4.19602833      -1.11797950      -0.45020984
H        3.94012835       1.38295949      -0.37717984
H        2.84301879       1.30846954      -1.82472932
H        3.21111862      -0.52598980       1.80985931
H        1.08511953       1.75246934       1.76367929
H        2.10656920       1.23592947       3.19350868
H        1.30538946      -0.93022965       2.98848877
