16
Properties=species:S:1:pos:R:3 atomization_energy=-1621.18 smiles=C.C.C.C.N.C.C.H.H.H.H.H.H.H.H.H pbc="F F F"
C        1.04134959      -0.31299989      -0.11766995
C        2.51325893      -0.05209998      -0.10840996
C        3.13901875       1.13798949       0.00000000
C        2.42793892       2.47149912       0.06554998
N        2.29771909       2.94829897       1.43959941
C        4.54501836       1.13798949       0.00000000
C        5.73517759       1.13798949       0.00000000
H        0.80248967      -1.08198962       0.62486978
H        0.73505969      -0.68375974      -1.10096960
H        0.44019982       0.56691976       0.12279996
H        3.12178881      -0.95407962      -0.17920993
H        1.43695939       2.42113910      -0.39705985
H        2.98658872       3.21479862      -0.51646979
H        1.75961928       2.26799901       1.97308925
H        1.75828936       3.81087848       1.44245945
H        6.79990750       1.14158950       0.00658000
