16
Properties=species:S:1:pos:R:3 atomization_energy=-1601.6 smiles=C.C.C.C.C.C.H.H.H.H.H.H.H.H.H.H pbc="F F F"
C        1.00095962      -0.05371998       0.00237000
C        2.51999896       0.00000000       0.00000000
C        3.00201878       1.36116943       0.00000000
C        3.39929870       2.48306901       0.00000000
C        3.88131852       3.84423844       0.00000000
C        2.74506885       4.83845790      -0.18115993
H        0.65725972      -1.09300955       0.00223000
H        0.58555979       0.44191981      -0.88200965
H        0.58836975       0.44074981       0.88869965
H        2.89592887      -0.53294979      -0.88055963
H        2.89871890      -0.53395981       0.87874966
H        4.61281825       3.98542838      -0.80353968
H        4.39936821       4.06015830       0.94112960
H        2.22815919       4.67862826      -1.13338949
H        3.13186869       5.86232781      -0.17190993
H        2.00650926       4.74608801       0.62168978
