16
Properties=species:S:1:pos:R:3 atomization_energy=-1677.17 smiles=C.C.N.C.C.C.C.H.H.H.H.H.H.H.H.H pbc="F F F"
C        2.32735918      -0.50593982      -1.40440941
C        2.49896891       0.04662998      -0.00069000
N        3.01787880       1.40237941      -0.00497000
C        2.25532920       2.54075900      -0.02520999
C        3.10929867       3.62233858      -0.00973999
C        4.43084805       3.11664883       0.02580999
C        4.34510841       1.74145938       0.03112999
H        1.93547928      -1.52689946      -1.36556945
H        3.28213877      -0.52631979      -1.94033917
H        1.63055941       0.10577996      -1.98722926
H        3.19290863      -0.57400976       0.57681979
H        1.54039943       0.05821998       0.52984978
H        1.17476955       2.49383902      -0.05142998
H        2.81146881       4.66268799      -0.02158999
H        5.34629777       3.69281849       0.04655998
H        5.11844820       0.98516961       0.05489998
