18
Properties=species:S:1:pos:R:3 atomization_energy=-1751.01 smiles=C.C.C.C.C.C.H.H.H.H.H.H.H.H.H.H.H.H pbc="F F F"
C        0.91394961      -0.02170999       0.12154995
C        2.43161892      -0.00576000      -0.02734999
C        2.84948882       0.02163999      -1.49815943
C        3.14466870       1.05950955       0.85854966
C        4.19839823      -0.00734000       1.21068953
C        3.16406869      -1.08329959       0.82474970
H        0.61175979      -0.04150998       1.17443950
H        0.48373980      -0.90418963      -0.36346986
H        0.46731982       0.86817963      -0.33467988
H        3.93801836       0.03443999      -1.61504936
H        2.45276908       0.91172967      -1.99802917
H        2.47046911      -0.85988966      -2.02535916
H        2.56292908       1.39144943       1.72733930
H        3.52745850       1.94347918       0.34082985
H        5.08104817       0.01068999       0.56142979
H        4.52817827      -0.02091999       2.25250915
H        3.56469855      -1.94336929       0.28026988
H        2.58997899      -1.45325948       1.68276940
