19
Properties=species:S:1:pos:R:3 atomization_energy=-1798.5 smiles=C.C.C.N.C.N.C.H.H.H.H.H.H.H.H.H.H.H.H pbc="F F F"
C        2.29563912      -1.01477961       1.32091944
C        2.46199910      -0.27726988      -0.00059000
C        3.04580885       1.12338960       0.17335993
N        4.41289821       1.01645963       0.68986975
C        4.97767815       2.15775927       0.85243965
N        6.24132734       2.28730916       1.33309947
C        6.72232724       3.49251869       1.95627919
H        1.82722929      -1.98904920       1.15146953
H        1.66180937      -0.44804982       2.00919924
H        3.26168884      -1.18723951       1.80447923
H        1.48074946      -0.19444992      -0.48401980
H        3.10172873      -0.86971967      -0.66598974
H        2.41711896       1.70481936       0.85876969
H        3.05000890       1.62637942      -0.80130970
H        4.48687820       3.12120870       0.62122978
H        6.61998723       1.41390943       1.68715933
H        6.58421726       4.35456831       1.29697950
H        7.78987669       3.39823865       2.17464906
H        6.19272733       3.67668846       2.89601896
