14
Properties=species:S:1:pos:R:3 atomization_energy=-1384.66 smiles=C.N.N.C.C.C.N.H.H.H.H.H.H.H pbc="F F F"
C        2.71250903      -1.39957942       0.90539962
N        3.66449860      -0.47150981       0.30229988
N        3.47932858       0.83195969       0.61585979
C        4.27596813       1.63034934      -0.02047999
C        4.20476833       3.11134886       0.19813992
C        5.49167793       3.59047848       0.69547970
N        6.52267719       3.97229832       1.07183959
H        2.91293878      -2.41597892       0.55385979
H        1.68696932      -1.14127951       0.62324975
H        2.79367895      -1.38851948       1.99686920
H        4.61044835      -0.78657967       0.53645978
H        5.01810817       1.26512950      -0.75571968
H        3.40106854       3.34806864       0.90224965
H        3.97054840       3.58076852      -0.76253970
