20
Properties=species:S:1:pos:R:3 atomization_energy=-1914.15 smiles=C.C.C.N.C.C.C.H.H.H.H.H.H.H.H.H.H.H.H.H pbc="F F F"
C        0.80609971      -0.60065973       0.79040968
C        2.12650905      -0.58830976       0.01467999
C        2.27121901      -1.89515926      -0.76756967
N        2.13247921       0.58877979      -0.86395964
C        3.43394857       0.83613968      -1.47858938
C        3.34710877       2.07965921      -2.30977901
C        4.12775834       3.15788884      -2.15564927
H        0.69406973       0.30714988       1.39398939
H        0.76626972      -1.45627938       1.47369945
H       -0.05582998      -0.66862976       0.11661995
H        2.94136894      -0.51275979       0.74554973
H        1.51603937      -1.97403928      -1.55745942
H        2.15125922      -2.75835888      -0.10370996
H        3.25914862      -1.98123917      -1.23053955
H        1.88493922       1.41339947      -0.31619986
H        3.71588863       0.01400999      -2.14427923
H        4.21076826       0.93557964      -0.71132970
H        2.59598902       2.08039917      -3.09740882
H        4.89497809       3.20317877      -1.38989948
H        4.00966832       4.02208832      -2.80188880
