16
Properties=species:S:1:pos:R:3 atomization_energy=-1616.05 smiles=N.C.C.C.C.C.C.H.H.H.H.H.H.H.H.H pbc="F F F"
N        1.06849961      -0.13079995       0.00718000
C        2.52432896      -0.05225998      -0.03943999
C        3.23651879      -0.59939978      -1.24267946
C        3.16932878       0.89169968      -1.02112959
C        4.38075828       1.66855936      -0.61042975
C        5.07399803       1.97343923      -1.86819931
C        5.64648769       2.22655915      -2.89144898
H        0.68600971       0.55595975       0.65617974
H        0.76487969      -1.04317962       0.34616988
H        3.01896888      -0.19517993       0.91916965
H        2.64611891      -1.00995958      -2.05406917
H        4.18290837      -1.10420953      -1.08857963
H        2.50689893       1.46821945      -1.66014929
H        5.02866823       1.09491958       0.06067998
H        4.08179848       2.58707895      -0.09579996
H        6.15186733       2.44951905      -3.80381850
