19
Properties=species:S:1:pos:R:3 atomization_energy=-1787.65 smiles=N.C.C.C.C.C.N.H.H.H.H.H.H.H.H.H.H.H.H pbc="F F F"
N        1.40288950       0.18136993       1.11850952
C        1.94250922       0.47494981      -0.20015992
C        3.12815867       1.36489951      -0.01874999
C        3.44157856       2.44905905      -1.02164958
C        2.93978884       2.81987901       0.35246986
C        3.84156852       3.43462860       1.37041951
N        3.63635861       4.87401794       1.33533953
H        0.55912979      -0.37905984       1.01435961
H        1.10476958       1.05450961       1.55277943
H        1.17288956       0.94599959      -0.82123971
H        2.24873907      -0.45534983      -0.68928970
H        3.96545837       0.82876965       0.41669984
H        2.76786899       2.59724891      -1.85826932
H        4.48340815       2.62842897      -1.26148949
H        1.91967930       3.17958882       0.44360983
H        4.89393798       3.20286865       1.17326956
H        3.59149866       3.05211889       2.36475896
H        3.91347839       5.22629812       0.42063983
H        4.25915833       5.31324793       2.01101918
