8
Properties=species:S:1:pos:R:3 atomization_energy=-725.93 smiles=C.C.N.H.H.H.H.H pbc="F F F"
C       -0.05591998       0.88214963      -0.06571997
C       -0.76457967      -0.44299982      -0.06511998
N        0.69191975      -0.37015986      -0.08059996
H       -0.04143998       1.45387946      -0.98501960
H       -0.02508999       1.45808948       0.84994964
H       -1.23274947      -0.77323968      -0.98412962
H       -1.22648951      -0.78783969       0.85108967
H        1.07882955      -0.57667975       0.84245969
