10
Properties=species:S:1:pos:R:3 atomization_energy=-1018.01 smiles=O.C.C.C.N.H.H.H.H.H pbc="F F F"
O        1.17568955      -0.20534992       0.29115990
C        2.36276908      -0.04484998       0.15676994
C        3.34397860       1.11915952      -0.06405998
C        4.29462853       0.01231000      -0.55522976
N        3.37302874      -0.95221963       0.05594998
H        3.64288869       1.62740931       0.85722965
H        3.03245876       1.84049927      -0.82121965
H        4.36535850      -0.10573996      -1.64050933
H        5.28774784       0.00622000      -0.10088996
H        3.12314888      -1.87979923      -0.25920990
