22
Properties=species:S:1:pos:R:3 atomization_energy=-2055.72 smiles=C.C.C.C.C.N.C.H.H.H.H.H.H.H.H.H.H.H.H.H.H.H pbc="F F F"
C        2.31651903      -0.87604965      -1.32427948
C        2.01764918      -0.04697998      -0.07941997
C        2.73724885       1.32682954      -0.00508000
C        2.27834913       2.22397906      -1.17418956
C        2.33558896       2.03073924       1.30752947
N        4.20471837       1.21798948      -0.12392995
C        4.87238788       0.43869984       0.90882963
H        1.79713930      -1.83822930      -1.26162954
H        3.38573867      -1.08289952      -1.42709942
H        1.96937922      -0.37657986      -2.23342912
H        2.26405911      -0.64913976       0.80393968
H        0.93231965       0.11288995      -0.03310999
H        2.60712894       1.83432926      -2.14388912
H        2.68127900       3.23976882      -1.08027957
H        1.18586947       2.30614897      -1.20228955
H        2.55750901       1.41604945       2.18649904
H        1.25960950       2.24045907       1.32437953
H        2.85752885       2.98758871       1.42475943
H        4.61331837       2.15274923      -0.14420995
H        4.52327800      -0.59667978       0.93846965
H        4.76435831       0.88719966       1.90023919
H        5.94386765       0.40276983       0.68629970
