18
Properties=species:S:1:pos:R:3 atomization_energy=-1761.92 smiles=C.C.C.C.N.C.C.H.H.H.H.H.H.H.H.H.H.H pbc="F F F"
C        0.97825964       0.01637000      -0.00950000
C        2.51999896       0.00000000       0.00000000
C        2.99296891      -0.72110974       1.27508952
C        3.00661877      -0.75582971      -1.27192945
N        4.46004833      -0.93539960      -1.36130947
C        3.00201878       1.36116943       0.00000000
C        3.39929870       2.48306901       0.00000000
H        0.59069977       0.52096980      -0.90210966
H        0.57887976       0.54616980       0.86315969
H        0.57130976      -1.00053961       0.00294000
H        2.59588909      -0.23653991       2.17512925
H        4.08512849      -0.71519970       1.36604951
H        2.66005895      -1.76481932       1.28502948
H        2.67406889      -0.22003992      -2.17047903
H        2.54648894      -1.75074933      -1.30704954
H        4.91184795      -0.02204999      -1.30287952
H        4.69668811      -1.31213944      -2.27793909
H        3.75427856       3.48796866       0.00568000
