16
Properties=species:S:1:pos:R:3 atomization_energy=-1656.46 smiles=N.C.C.C.C.C.C.H.H.H.H.H.H.H.H.H pbc="F F F"
N        0.91146964      -0.06198997       0.22086992
C        2.37014901      -0.00548000       0.07977997
C        2.80060897       1.32452954      -0.60535978
C        3.89350839       1.19618957      -1.63142932
C        4.32124848       0.01119999      -2.08574922
C        3.75229852      -1.22489957      -1.60985941
C        2.85161900      -1.24823945      -0.61655975
H        0.58511979       0.78030968       0.69080974
H        0.66277971      -0.84211968       0.82523966
H        2.79584900      -0.01419999       1.09211958
H        3.12796866       2.02312919       0.17325993
H        1.94446921       1.80057933      -1.09766961
H        4.32116823       2.11254920      -2.02756921
H        5.09561778      -0.04842998      -2.84326886
H        4.08183834      -2.14497920      -2.07671917
H        2.46928895      -2.20413902      -0.27389990
