15
Properties=species:S:1:pos:R:3 atomization_energy=-1512.24 smiles=C.C.C.C.C.N.N.H.H.H.H.H.H.H.H pbc="F F F"
C        0.93154966      -0.05397998      -0.07223997
C        2.45202899       0.02584999       0.01772999
C        3.08640869      -0.72712973      -1.08377953
C        3.60198857      -1.34604948      -1.97462922
C        2.89270887       1.49411936       0.00718000
N        2.73926901       2.25893906      -1.11248953
N        3.41645874       2.06074913       1.04881960
H        0.46326981       0.51646979       0.73739968
H        0.58866977      -1.09209952       0.00076000
H        0.55901978       0.35151987      -1.02023961
H        2.76486903      -0.42026982       0.96969962
H        4.06110832      -1.90051928      -2.76119887
H        2.81157882       1.77715933      -2.00127919
H        3.28795879       3.11141876      -1.06530963
H        3.48071867       1.40090945       1.83055931
