15
Properties=species:S:1:pos:R:3 atomization_energy=-1453.11 smiles=C.C.C.C.C.H.H.H.H.H.H.H.H.H.H pbc="F F F"
C        0.96854962      -0.01070000       0.01323000
C        2.48291913       0.01730999       0.02091999
C        3.15279881       1.05047956       0.96234959
C        4.24205834      -0.00884000       1.22872958
C        3.19304868      -1.07792961       0.85744968
H        0.60209979      -0.87046966      -0.55801979
H        0.56882978       0.89651965      -0.45199982
H        0.55944975      -0.07921997       1.02639959
H        2.87815895       0.07568997      -1.00336963
H        2.56462904       1.30631955       1.85153926
H        3.49719868       1.97265928       0.48699980
H        5.08660803       0.04123999       0.53154980
H        4.62483830      -0.05203998       2.25145920
H        3.57106866      -1.93495922       0.29473988
H        2.61693907      -1.44138944       1.71634939
