19
Properties=species:S:1:pos:R:3 atomization_energy=-1786.48 smiles=N.C.C.C.C.N.C.H.H.H.H.H.H.H.H.H.H.H.H pbc="F F F"
N        2.19394912      -0.43211983      -1.40394941
C        2.37848906       0.04439998      -0.03775999
C        3.22484872       1.30878949      -0.02795999
C        2.57090905       2.60939891      -0.57229978
C        3.15991884       3.37462877       0.62879978
N        4.47000835       3.91608850       0.26608990
C        3.34425869       2.02251918       1.34588950
H        1.63135930      -1.28194952      -1.39177947
H        3.09533870      -0.69630974      -1.79966930
H        2.86629888      -0.73800969       0.55403977
H        1.39602949       0.23059991       0.40974985
H        4.21511845       1.12564961      -0.47098982
H        1.47359940       2.59015890      -0.56324980
H        2.89398895       2.91947895      -1.57135934
H        2.49406914       4.09171838       1.11485955
H        5.07351810       3.28450866      -0.25808990
H        5.01675820       4.23724841       1.06312962
H        4.28578836       1.86302929       1.88123928
H        2.52191894       1.79583928       2.03636926
