17
Properties=species:S:1:pos:R:3 atomization_energy=-1787.31 smiles=C.C.C.C.C.C.C.H.H.H.H.H.H.H.H.H.H pbc="F F F"
C        0.98240961       0.05940998      -0.16075995
C        2.49861893      -0.00935000      -0.00224000
C        2.95334887      -1.30440953       0.69851973
C        3.36653878      -0.86031964       2.07627923
C        3.59058850      -1.64834939       3.13212884
C        3.45765863       0.57382979       2.07023918
C        2.99720884       1.06982952       0.91830965
H        0.62758972      -0.75001971      -0.80657970
H        0.67961974       1.00947958      -0.61289975
H        0.46927980      -0.03150999       0.80331971
H        2.97423887       0.07590997      -0.98563964
H        3.82276858      -1.72021926       0.17389993
H        2.16979925      -2.06832916       0.72369973
H        3.48761867      -2.72591893       3.05466870
H        3.87243848      -1.24055950       4.09634840
H        3.82856842       1.16309948       2.89678882
H        2.95159895       2.12375915       0.68140971
