14
Properties=species:S:1:pos:R:3 atomization_energy=-1495.81 smiles=C.C.C.C.C.C.N.H.H.H.H.H.H.H pbc="F F F"
C        1.03720958      -0.14928994      -0.29793988
C        2.52408899      -0.02400999       0.01605999
C        3.02738892       1.43281939       0.00000000
C        2.42324910       2.20877914       1.10787956
C        1.93322924       2.84109881       2.00299921
C        4.47078805       1.45268947       0.03624999
N        5.62132774       1.46851947       0.06513997
H        0.74891968      -1.20492957      -0.33090986
H        0.80340967       0.29501987      -1.27064950
H        0.42178983       0.33999987       0.46291983
H        3.07602879      -0.61287976      -0.72883972
H        2.72416901      -0.48983982       0.99030960
H        2.70578895       1.89234930      -0.94408964
H        1.50296937       3.40406877       2.80058879
