14
Properties=species:S:1:pos:R:3 atomization_energy=-1448.23 smiles=C.N.C.C.C.C.C.H.H.H.H.H.H.H pbc="F F F"
C        1.07735959      -0.13519994      -0.21946992
N        2.48948908      -0.00049000       0.11465996
C        2.96069877       1.38567949       0.00000000
C        2.41439908       2.21511921       1.09267963
C        1.96928927       2.89166877       1.98018922
C        4.40469846       1.38567949       0.00000000
C        5.59485769       1.38567949       0.00000000
H        0.79324967      -1.19071954      -0.15941994
H        0.86963968       0.20676992      -1.23871950
H        0.43623983       0.40990982       0.48003981
H        3.03159881      -0.56990976      -0.53249976
H        2.62591904       1.80153932      -0.95953963
H        1.57857942       3.48444864       2.77474881
H        6.66021741       1.38444950       0.01118000
