17
Properties=species:S:1:pos:R:3 atomization_energy=-1668.82 smiles=C.C.C.N.N.C.C.H.H.H.H.H.H.H.H.H.H pbc="F F F"
C        0.58788975       0.35633986       1.10940957
C        1.40290943       0.65472971      -0.13586994
C        2.83402899       1.00040959       0.23480991
N        3.16123879       2.23627921       0.46643982
N        3.80396839       0.04434998       0.35910986
C        3.77157839      -1.31594952       0.23020991
C        4.80849811      -2.14693905       0.36949986
H       -0.44263984       0.10777996       0.83933968
H        0.56680975       1.22169950       1.77990936
H        1.00929960      -0.48564979       1.66732937
H        0.95872965       1.50074936      -0.67273974
H        1.38594949      -0.19854993      -0.82027965
H        2.34635896       2.84855898       0.35274985
H        4.70571804       0.44021982       0.60632974
H        2.79354900      -1.72705933      -0.00416000
H        5.80365777      -1.78587927       0.60379974
H        4.67847837      -3.21742867       0.24749990
