19
Properties=species:S:1:pos:R:3 atomization_energy=-1803.75 smiles=C.C.N.C.C.N.C.H.H.H.H.H.H.H.H.H.H.H.H pbc="F F F"
C        2.34420910      -0.31621989      -0.29116990
C        3.86007853      -0.41402983      -0.33361987
N        4.41173850       0.88263966       0.04280999
C        5.69473797       1.03199958       0.09694996
C        6.67061750      -0.08994997      -0.20421992
N        6.24870752       2.24279919       0.44382983
C        5.46021777       3.32041868       0.99607959
H        1.89120927      -1.26877947      -0.58161976
H        1.98299918       0.45956981      -0.97420960
H        1.99729917      -0.06264997       0.71587974
H        4.16653838      -0.68825975      -1.34910950
H        4.18317836      -1.19636948       0.36199985
H        6.54248722      -0.89339963       0.52615978
H        7.70369699       0.26485988      -0.14965994
H        6.49556723      -0.47814982      -1.21082958
H        7.22818732       2.25097901       0.70196972
H        4.60891822       3.56158857       0.35099988
H        6.07699762       4.21944846       1.08501961
H        5.09277804       3.05701892       1.99250917
