10
Properties=species:S:1:pos:R:3 atomization_energy=-1065.62 smiles=C.C.C.C.N.H.H.H.H.H pbc="F F F"
C        0.98603958       0.01481999      -0.00654000
C        2.48586914      -0.00007000      -0.00315000
C        3.16759880      -1.15817953       0.00516000
C        3.19070881       1.24248946      -0.00623000
N        3.76084851       2.25259923      -0.00803000
H        0.59303977       1.03707957       0.02191999
H        0.59203978      -0.51385980       0.86801965
H        0.59805977      -0.46365982      -0.91210962
H        2.65457907      -2.11533923       0.00789000
H        4.25463857      -1.18188958       0.00841999
