19
Properties=species:S:1:pos:R:3 atomization_energy=-1778.39 smiles=C.N.C.C.C.C.N.H.H.H.H.H.H.H.H.H.H.H.H pbc="F F F"
C        0.93010961      -0.35605987      -0.04558998
N        2.36999913      -0.55550978      -0.19655993
C        2.82020881      -0.52808980      -1.58399937
C        3.06690878       0.64236978      -0.65708977
C        4.45139841       0.92353966      -0.15178995
C        4.43411826       1.36492941       1.31312946
N        5.77582765       1.71926937       1.77180928
H        0.72560969       0.14033994       0.90854966
H        0.42755983      -1.32726947      -0.02928999
H        0.47227980       0.24509990      -0.84112965
H        2.08284918      -0.42295983      -2.37050908
H        3.64391846      -1.19133951      -1.82005930
H        2.49094907       1.54954934      -0.80667969
H        4.89020802       1.71429932      -0.77357969
H        5.09405786       0.04098998      -0.26411989
H        4.03812851       0.56044980       1.94486928
H        3.77298842       2.22998909       1.43859941
H        6.38396768       0.90566962       1.68682928
H        5.73789772       1.93658928       2.76671887
