19
Properties=species:S:1:pos:R:3 atomization_energy=-1780.39 smiles=C.N.C.C.N.C.C.H.H.H.H.H.H.H.H.H.H.H.H pbc="F F F"
C        0.97410961       1.05717959       0.49583981
N        2.41291916       0.97117961       0.70436971
C        3.13656887       1.55377942      -0.43468983
C        4.63500826       1.46622943      -0.14421995
N        5.05364802       1.89119930       1.21359955
C        5.43752763       0.37229985      -0.81546971
C        5.58434759       1.79233932      -1.27336950
H        0.45463983       0.64050978       1.36305951
H        0.66225972       0.49184980      -0.38857985
H        0.65118976       2.09773913       0.38763985
H        2.68438898      -0.00900000       0.78740972
H        2.86661883       2.61027904      -0.55425980
H        2.88801879       1.02663962      -1.36261945
H        5.61173764       1.16412950       1.65610934
H        4.20040829       1.93842928       1.78249929
H        4.92642815      -0.31985986      -1.47381944
H        6.27224751      -0.06971997      -0.28384989
H        6.50252754       2.31632902      -1.03129961
H        5.16824780       2.06531922      -2.23563904
