15
Properties=species:S:1:pos:R:3 atomization_energy=-1506.88 smiles=C.C.C.C.N.C.N.H.H.H.H.H.H.H.H pbc="F F F"
C        0.99999962       0.00000000       0.00000000
C        2.44399905       0.00000000       0.00000000
C        3.63415853       0.00000000       0.00000000
C        5.07815797       0.00000000       0.00000000
N        5.56266779       1.31819943       0.33929987
C        6.87396722       1.62973933       0.42280982
N        7.34394731       2.81439888       0.57149977
H        0.60600979       1.02087959       0.01214999
H        0.60592973      -0.52090981       0.87801966
H        0.60591977      -0.49987980      -0.89015964
H        5.45589786      -0.28620988      -0.98788961
H        5.45941788      -0.73007974       0.72243972
H        4.88516796       2.06778917       0.28635989
H        7.55669687       0.76636971       0.35511985
H        6.57492743       3.48486852       0.62731973
