15
Properties=species:S:1:pos:R:3 atomization_energy=-1505.19 smiles=C.N.N.C.C.C.C.H.H.H.H.H.H.H.H pbc="F F F"
C        1.11140955       0.03768999       0.03043999
N        2.48209905       0.03300999       0.52569978
N        3.10731888       1.26178951       0.61644974
C        4.32610837       1.20207949       0.18170994
C        4.68921810      -0.10322997      -0.38259986
C        4.65402798      -1.36590947       0.43067984
C        3.39788867      -0.85678964      -0.21781991
H        0.68954973      -0.97250964       0.05339998
H        1.05647956       0.41589982      -0.99608962
H        0.48124980       0.67017970       0.66437974
H        5.03215798       2.04467916       0.18478992
H        5.15947777      -0.11360996      -1.35569951
H        5.11305790      -2.25335900       0.01305999
H        4.73624810      -1.28999952       1.50902936
H        3.00453881      -1.39532940      -1.07246954
