19
Properties=species:S:1:pos:R:3 atomization_energy=-1764.28 smiles=C.N.C.C.C.N.C.H.H.H.H.H.H.H.H.H.H.H.H pbc="F F F"
C        2.18869912      -0.37527985      -1.34540945
N        2.34409909       0.10493996       0.03045999
C        2.93745881      -0.95445963       0.85151964
C        3.23857882       1.28125952       0.03515999
C        2.51118906       2.53702904      -0.50801981
N        3.10083876       3.31341876       0.61856976
C        3.15647881       2.03882924       1.38594949
H        1.70875939       0.38198984      -1.97504923
H        1.53717943      -1.25654948      -1.37201942
H        3.14841885      -0.64312973      -1.80402933
H        2.29512916      -1.84273921       0.85234969
H        3.02783883      -0.63838975       1.89649927
H        3.93183851      -1.24907946       0.49586981
H        4.25530826       1.13353951      -0.34987987
H        1.41423948       2.51679889      -0.47997982
H        2.82682897       2.87153879      -1.50149941
H        4.02367851       3.69029846       0.40286984
H        4.03245838       1.93941917       2.03508918
H        2.25574908       1.86632928       1.98797919
