15
Properties=species:S:1:pos:R:3 atomization_energy=-1503.72 smiles=C.C.C.N.N.C.C.H.H.H.H.H.H.H.H pbc="F F F"
C        2.36449906      -1.06970954       0.62963972
C        2.18439914       0.13727995       0.08082997
C        3.24183869       1.20267953       0.11338996
N        2.96747892       2.34408900      -0.45752981
N        4.45874832       0.94109964       0.73967968
C        5.66672769       1.52556942       0.13603995
C        5.12616803       2.06429918       1.41704944
H        1.57941943      -1.81783929       0.58699978
H        3.28723863      -1.34506943       1.13038953
H        1.24977956       0.37837986      -0.41247985
H        2.02739926       2.33813903      -0.85849963
H        5.50836762       2.08024916      -0.77865969
H        6.51382743       0.85680964       0.16636993
H        5.59530785       1.77341928       2.34501909
H        4.58700829       3.00136877       1.40948947
