16
Properties=species:S:1:pos:R:3 atomization_energy=-1607.48 smiles=C.C.N.C.C.C.C.H.H.H.H.H.H.H.H.H pbc="F F F"
C        3.05914884      -1.09950961      -0.57906977
C        2.49115901       0.16199993       0.05494998
N        3.51559868       1.20784955       0.07444998
C        3.43861872       2.13629925      -1.04613959
C        2.96606889       2.53957910       0.33263987
C        3.76223860       3.46151854       1.08718953
C        4.42811833       4.23410840       1.72182926
H        2.31090920      -1.89858920      -0.56284979
H        3.94092849      -1.45464945      -0.03483999
H        3.34525867      -0.92636961      -1.62194936
H        2.19688903      -0.06359997       1.08674960
H        1.57838942       0.45415983      -0.48079980
H        2.69731894       1.96731919      -1.81684927
H        4.38816824       2.51613904      -1.40422950
H        1.89364932       2.61726887       0.48335979
H        5.02566802       4.91111820       2.28631901
