10
Properties=species:S:1:pos:R:3 atomization_energy=-1074.92 smiles=O.C.C.C.C.S.H.H.H.H pbc="F F F"
O        0.85543968       0.10638996      -0.00601000
C        2.18403906       0.07340997       0.00031000
C        3.07247875       1.12887958       0.00475000
C        4.43189825       0.69744971       0.01112999
C        4.53360844      -0.67490972       0.01136000
S        2.99892873      -1.42842946       0.00391000
H        0.58901975       1.04053960      -0.00708000
H        2.76955886       2.16775916       0.00350000
H        5.28933803       1.35939945       0.01532999
H        5.43310780      -1.27516951       0.01551999
