13
Properties=species:S:1:pos:R:3 atomization_energy=-1306.23 smiles=C.C.C.C.C.H.H.H.H.H.H.H.H pbc="F F F"
C        1.00009961      -0.05442998       0.00330000
C        2.51999896       0.00000000       0.00000000
C        3.00201878       1.36116943       0.00000000
C        3.39929870       2.48306901       0.00000000
C        3.88131852       3.84423844       0.00000000
H        0.65800977      -1.09368959       0.00293000
H        0.58499974       0.44107983      -0.88044968
H        0.58887978       0.43924983       0.88977962
H        2.89560892      -0.53270976      -0.88085965
H        2.89946883      -0.53409980       0.87835968
H        3.08758885       4.54328837      -0.28087989
H        4.70475817       3.97070837      -0.70958975
H        4.24613854       4.13309843       0.99046964
