13
Properties=species:S:1:pos:R:3 atomization_energy=-1300.05 smiles=C.C.C.C.C.H.H.H.H.H.H.H.H pbc="F F F"
C        0.95709965      -0.04398999      -0.00181000
C        2.47735901      -0.01900999      -0.00520000
C        3.01421874       1.41083945       0.00812999
C        4.48457846       1.42471943       0.00472000
C        5.68530785       1.43961946       0.00197000
H        0.59490980      -1.07675955      -0.01150000
H        0.55449977       0.46545982      -0.88311966
H        0.55875975       0.44730983       0.89164965
H        2.84430897      -0.55045975      -0.89203963
H        2.84852895      -0.56844978       0.86882963
H        2.64607904       1.93806920       0.89597966
H        2.64183887       1.95608919      -0.86698963
H        6.75120756       1.45260948      -0.00048000
