12
Properties=species:S:1:pos:R:3 atomization_energy=-1210.27 smiles=C.C.C.C.N.H.H.H.H.H.H.H pbc="F F F"
C        0.96028962      -0.04655998      -0.00403000
C        2.48036907      -0.01139000      -0.00279000
C        3.00793872       1.42181939       0.00812000
C        4.47573829       1.44429945       0.00916000
N        5.63739771       1.46412941       0.00998999
H        0.60514978      -1.08180958      -0.01188999
H        0.55694978       0.45759983      -0.88803967
H        0.55580981       0.44452983       0.88678963
H        2.85367878      -0.54282976      -0.88695963
H        2.85254884      -0.55580981       0.87390963
H        2.63402896       1.94929920       0.89333964
H        2.63507891       1.96232921      -0.86965968
