14
Properties=species:S:1:pos:R:3 atomization_energy=-1366.13 smiles=C.N.C.C.N.N.C.H.H.H.H.H.H.H pbc="F F F"
C        1.54374938       0.08853996       0.40398985
N        2.81277891      -0.22271992      -0.27896990
C        2.86057878      -1.67972931      -0.57655976
C        3.05376889      -2.51807896       0.62386973
N        3.19982882      -3.18656881       1.56210938
N        3.05565885       0.57568979      -1.35849951
C        4.16838847       1.22366958      -1.24410955
H        1.51668938       1.15089952       0.67221974
H        1.43566947      -0.47214982       1.33809953
H        0.67976975      -0.11866995      -0.23779991
H        3.71174863      -1.86843928      -1.24377950
H        1.96318929      -1.99073919      -1.12545961
H        4.48538844       1.90635924      -2.04784920
H        4.84136829       1.13422950      -0.37280984
