19
Properties=species:S:1:pos:R:3 atomization_energy=-1767.82 smiles=C.C.C.N.N.C.C.H.H.H.H.H.H.H.H.H.H.H.H pbc="F F F"
C        1.46141937      -0.16472994       1.31314952
C        2.90309887      -0.22895991       0.84529968
C        3.10880890       0.70889975      -0.31104988
N        3.87342837       1.74599932      -0.18918993
N        3.93753842       2.48887894      -1.32665947
C        2.94447892       3.57180849      -1.41576949
C        5.26700772       3.06082886      -1.58182932
H        1.30057952      -0.85065964       2.15021911
H        0.77368971      -0.43964984       0.50676979
H        1.20084950       0.84677966       1.64134934
H        3.14333866      -1.24168956       0.50715980
H        3.58005872       0.03484999       1.66419933
H        2.57399910       0.47101982      -1.24896945
H        1.93124919       3.16768863      -1.30968943
H        2.98783877       4.06562833      -2.39290904
H        3.09491882       4.32169813      -0.63107978
H        6.02057786       2.26548907      -1.59707934
H        5.55158793       3.78459843      -0.80928967
H        5.30397779       3.55310873      -2.56048904
