18
Properties=species:S:1:pos:R:3 atomization_energy=-1794.58 smiles=N.C.C.C.C.C.C.H.H.H.H.H.H.H.H.H.H.H pbc="F F F"
N        0.99031963       0.02821999       0.00237000
C        2.44010911       0.00146000       0.02202999
C        3.01534893       1.11854951       0.89194967
C        4.43423838       0.64069972       1.16949948
C        4.27675843      -0.85527963       1.42705942
C        3.04557872      -1.23203953       0.64098977
C        2.56348900      -2.48330898       0.59108976
H        0.65672976      -0.66525975      -0.66341975
H        0.67372976       0.93128963      -0.34343987
H        2.82471898       0.10823996      -1.00044959
H        2.46422895       1.22033956       1.83639927
H        3.00051892       2.08934924       0.38609985
H        5.06907808       0.80914970       0.29059988
H        4.88954792       1.15999959       2.01811915
H        5.16442801      -1.40571939       1.10089957
H        4.11019836      -1.03819961       2.49462906
H        1.65449934      -2.72068885       0.04990998
H        3.06336883      -3.29802882       1.10466953
