17
Properties=species:S:1:pos:R:3 atomization_energy=-1559.47 smiles=C.O.C.C.C.N.H.H.H.H.H.H.H.H.H.H.H pbc="F F F"
C        2.17184919       2.45732895      -2.24393922
O        3.43289862       2.20801911      -1.63610931
C        3.28817882       1.47781939      -0.41026984
C        4.67002831       1.25281952       0.23573991
C        5.59937795       0.47117983      -0.69346976
N        5.28631813       2.54182889       0.58195978
H        2.34091896       3.01257884      -3.17019882
H        1.54115945       3.06018870      -1.58468937
H        1.67208935       1.51486944      -2.48749894
H        2.81515890       0.51098982      -0.62125974
H        2.64167889       2.04000914       0.27484990
H        4.53423826       0.68035976       1.15957959
H        5.81686781       1.02256958      -1.61554936
H        5.14813800      -0.48764980      -0.97314962
H        6.55434730       0.25555990      -0.20020992
H        5.22573794       3.14029883      -0.24634990
H        6.27994765       2.41337916       0.76241971
