14
Properties=species:S:1:pos:R:3 atomization_energy=-1369.0 smiles=C.N.C.N.C.C.N.H.H.H.H.H.H.H pbc="F F F"
C        1.20727953       0.01290000       0.03555999
N        2.66039884      -0.21569992       0.08747996
C        2.90469890      -1.64776941      -0.15656994
N        3.37472869       0.62323978      -0.71565971
C        4.39356813       1.13364952      -0.11097995
C        5.17329795       2.02396920      -0.92998962
N        5.83305789       2.74802895      -1.55590935
H        0.98472960       1.05781956       0.27894990
H        0.68555974      -0.60491978       0.77461968
H        0.79904970      -0.19951992      -0.95896961
H        2.38289905      -2.26614917       0.58192975
H        3.97341842      -1.86868921      -0.05922998
H        2.58566892      -1.94633923      -1.16145958
H        4.69738808       0.95079963       0.93195963
