19
Properties=species:S:1:pos:R:3 atomization_energy=-1781.33 smiles=C.N.C.C.C.C.N.H.H.H.H.H.H.H.H.H.H.H.H pbc="F F F"
C        2.14174910      -0.74289968      -1.29429950
N        1.81357931       0.36059985      -0.39933986
C        3.00310884       1.12111951       0.06583997
C        3.79927856       0.43979982       1.15684949
C        3.75176862       1.98806927      -0.92114964
C        2.86869880       2.64357895       0.09570996
N        3.45895863       3.46764867       1.15097951
H        2.64187899      -0.39126983      -2.20185920
H        1.22029957      -1.25136950      -1.59462933
H        2.77691886      -1.48532939      -0.80275966
H        1.15135951       0.97669961      -0.87034968
H        4.71223828       0.98640963       1.41401945
H        4.10933841      -0.56345980       0.84736968
H        3.19316879       0.34591988       2.06427924
H        3.42342863       2.01295923      -1.95386918
H        4.82614818       2.08401924      -0.81636965
H        1.93520928       3.05742870      -0.28200989
H        4.40424830       3.16925863       1.38317940
H        2.91623877       3.37435878       2.00975916
