14
Properties=species:S:1:pos:R:3 atomization_energy=-1420.72 smiles=C.C.C.N.C.N.N.H.H.H.H.H.H.H pbc="F F F"
C        0.96769965      -0.07437997      -0.03364998
C        2.48781890       0.01311000       0.04631998
C        3.11799880      -0.76986967      -1.02396958
N        3.60779850      -1.37796951      -1.88441929
C        2.92100884       1.47478940      -0.03442999
N        2.82812898       2.18297902      -1.19726955
N        3.36090877       2.11380922       1.00424957
H        0.50104979       0.52149979       0.75847969
H        0.62825973      -1.11044955       0.07557997
H        0.58969979       0.29858988      -0.99284962
H        2.80895887      -0.39034983       1.01412960
H        2.97078875       1.69367932      -2.07522916
H        3.32832876       3.06668875      -1.14832952
H        3.38015861       1.52047940       1.83997934
