19
Properties=species:S:1:pos:R:3 atomization_energy=-1784.7 smiles=C.N.C.C.C.C.N.H.H.H.H.H.H.H.H.H.H.H.H pbc="F F F"
C        0.93445960       1.08499955      -1.20819953
N        2.38912911       1.01525961      -1.18185955
C        2.91460895       1.59537938       0.05107998
C        4.40798835       1.48498938       0.04002999
C        5.24460777       2.53115906       0.13928994
C        6.73352721       2.42246914       0.12815995
N        7.26381699       3.22381871      -0.96384963
H        0.56569981       0.63570974      -2.13517915
H        0.58148975       2.12068928      -1.17280957
H        0.49522980       0.52802981      -0.37471986
H        2.76065888       1.54644945      -1.96912916
H        2.53595891       1.04572961       0.92072963
H        2.60020900       2.64135893       0.14961994
H        4.80859803       0.47792982      -0.05236998
H        4.84198802       3.53715862       0.23923990
H        7.06365724       1.38346945       0.01773999
H        7.12833732       2.79697894       1.07795963
H        6.93640709       2.82712899      -1.84440926
H        8.27797669       3.13190881      -0.97734961
