19
Properties=species:S:1:pos:R:3 atomization_energy=-1772.08 smiles=C.N.C.C.C.N.C.H.H.H.H.H.H.H.H.H.H.H.H pbc="F F F"
C        1.34404950       0.33273986      -0.13564994
N        2.62931895       0.83195969       0.33744988
C        3.48908850       1.19272948      -0.79151969
C        4.76325814       1.76140932      -0.24311991
C        5.96151772       0.87200964       0.01071000
N        5.94697788       1.81132927      -1.10587958
C        6.76215723       3.00214873      -0.87906968
H        0.70595971       0.10084996       0.72216973
H        1.46239943      -0.58157977      -0.72544971
H        0.82357970       1.08359962      -0.73883974
H        3.08844879       0.10179996       0.88093964
H        3.00466876       1.95645923      -1.40968944
H        3.68498865       0.31642986      -1.42063949
H        4.58696842       2.60287892       0.41847984
H        5.89963751      -0.17558992      -0.25993990
H        6.59235747       1.08533957       0.86523965
H        6.32894735       3.85265848      -1.41510940
H        7.76818681       2.83613898      -1.27725944
H        6.86317754       3.28644859       0.17550993
