13
Properties=species:S:1:pos:R:3 atomization_energy=-1267.5 smiles=N.C.C.O.C.C.H.H.H.H.H.H.H pbc="F F F"
N        0.93831964       0.00754000       0.12691995
C        2.40477895      -0.00251000      -0.03123999
C        2.97738872       1.43281939       0.00000000
O        2.49896891       2.08690919       1.17735948
C        4.42138815       1.43281939       0.00000000
C        5.61154789       1.43281939       0.00000000
H        0.60711979      -0.95915962       0.15163993
H        0.51376981       0.42054985      -0.70607970
H        2.67741884      -0.51049979      -0.96315964
H        2.81881896      -0.58560975       0.80074972
H        2.59573895       1.99630928      -0.85899969
H        1.61525930       1.69366935       1.32702951
H        6.67696716       1.44307943       0.01178999
