13
Properties=species:S:1:pos:R:3 atomization_energy=-1390.3 smiles=C.N.C.C.C.C.N.H.H.H.H.H.H pbc="F F F"
C        1.00603961      -0.07778997       0.00633000
N        2.45918914      -0.04823998      -0.00545000
C        3.02522871       1.09338957      -0.00545000
C        2.47517912       2.46265895       0.00539000
C        3.50048858       3.31462869      -0.00041000
C        4.66205817       2.44158903      -0.01421999
N        4.39229839       1.18199960      -0.01681999
H        0.66953973      -1.11930953      -0.00028000
H        0.58591974       0.40662984      -0.88155968
H        0.60133977       0.39062986       0.90977965
H        1.42683939       2.69570881       0.01579999
H        3.50528867       4.38821820       0.00391000
H        5.67214776       2.87403889      -0.02141999
