16
Properties=species:S:1:pos:R:3 atomization_energy=-1656.92 smiles=C.C.C.C.N.C.C.H.H.H.H.H.H.H.H.H pbc="F F F"
C        1.04003961       0.07044997       0.22216992
C        2.39386916       0.11305995      -0.49491982
C        2.42315902      -0.81005966      -1.72499930
C        2.36712911      -2.22942917      -1.34666946
N        2.31974912      -3.34949860      -1.04864959
C        2.69005887       1.53688938      -0.91289966
C        3.75682862       2.23213920      -0.49787982
H        1.02899961       0.75571968       1.07748954
H        0.82544967      -0.93259961       0.60511975
H        0.22152991       0.35739985      -0.44782982
H        3.15957870      -0.22175990       0.21859991
H        3.34540856      -0.63974976      -2.29517912
H        1.58998934      -0.57561976      -2.39917896
H        1.98384916       2.01856918      -1.58831941
H        4.49168814       1.80787927       0.17984992
H        3.91603854       3.25490869      -0.82750969
