17
Properties=species:S:1:pos:R:3 atomization_energy=-1656.49 smiles=N.C.C.C.N.C.C.H.H.H.H.H.H.H.H.H.H pbc="F F F"
N        1.03545961       0.03785998       0.33957987
C        2.47754901       0.00614000       0.06475997
C        2.87546885      -1.30601953      -0.64482975
C        2.70037896      -1.01237963      -2.10642916
N        3.73447863      -0.35066985      -2.88784898
C        2.69901890       0.47566981      -2.28727914
C        2.87274897       1.11108959      -0.93755962
H        0.79160971       0.91516964       0.79792966
H        0.79317971      -0.70605970       0.99399963
H        3.01009893       0.12186995       1.01445959
H        2.26432911      -2.15695912      -0.32438987
H        3.92208843      -1.55008933      -0.42789985
H        1.94603921      -1.59491939      -2.61566909
H        4.61458810      -0.28772989      -2.37627915
H        1.94275929       0.91830965      -2.92070882
H        3.91836857       1.40251945      -0.78620969
H        2.25921914       2.01268923      -0.83032969
