11
Properties=species:S:1:pos:R:3 atomization_energy=-1152.69 smiles=N.C.C.C.O.C.H.H.H.H.H pbc="F F F"
N        0.91348962      -0.04193998       0.10296996
C        2.07206921      -0.01980999       0.05845998
C        3.50721850       0.00792000      -0.00436000
C        4.19788826       1.01574957       0.91750963
O        5.08923783      -0.01233999       1.42250939
C        4.23439858      -1.03488959       0.84798966
H        3.89301836       0.04952998      -1.03093960
H        3.59667851       1.44300941       1.72725931
H        4.74632823       1.81317924       0.40778983
H        4.81023819      -1.77596933       0.28617988
H        3.64975866      -1.53710941       1.62626940
