17
Properties=species:S:1:pos:R:3 atomization_energy=-1636.38 smiles=C.C.N.N.C.C.C.H.H.H.H.H.H.H.H.H.H pbc="F F F"
C        0.93916962       0.19349993      -0.46332980
C        2.38411908       0.05137998      -0.06725998
N        3.01018876      -1.05982963       0.18341992
N        2.26747921      -2.18700925       0.09838996
C        3.18287872       1.30042951       0.02506999
C        2.78699898       2.39168902       0.99242962
C        4.02099850       1.58122941       1.25091946
H        0.70356969       1.23184953      -0.71153970
H        0.30068988      -0.12377996       0.36603986
H        0.73034973      -0.42702984      -1.33933949
H        2.88965895      -2.99831884       0.13687994
H        1.66788930      -2.28230922       0.92176961
H        3.60421867       1.61359934      -0.92536962
H        1.93615918       2.23065903       1.64459937
H        2.91264885       3.41989877       0.67313974
H        4.98622814       2.05091919       1.10220955
H        4.00147841       0.86106969       2.06165916
