17
Properties=species:S:1:pos:R:3 atomization_energy=-1665.67 smiles=C.N.C.N.C.C.C.H.H.H.H.H.H.H.H.H.H pbc="F F F"
C        0.88209967       0.80548969      -0.53537981
N        2.26398921       0.38427984      -0.60092979
C        3.30710871       1.07632958      -0.03769999
N        3.25721879       2.35110910       0.19707992
C        4.58728838       0.41563983       0.35503986
C        4.92175801      -0.84638969       0.04527998
C        6.21427743      -1.47164939       0.45965983
H        0.24826991       0.06306998      -1.02978960
H        0.73118968       1.76063933      -1.04585956
H        0.55562977       0.89471964       0.50486980
H        2.35902902      -0.62351974      -0.55430976
H        2.37010914       2.72440897      -0.13633994
H        5.26467770       1.05304956       0.91673964
H        4.26686856      -1.47507945      -0.54667977
H        6.82963716      -0.79553970       1.06239963
H        6.79011755      -1.76107926      -0.42502983
H        6.01827761      -2.37121914       1.05208956
