17
Properties=species:S:1:pos:R:3 atomization_energy=-1659.76 smiles=C.C.N.C.C.C.N.H.H.H.H.H.H.H.H.H.H pbc="F F F"
C        3.49201857      -1.13558957       0.22610991
C        3.28330883      -0.04933998       1.27597949
N        3.19512865       1.30469946       0.70669973
C        2.80798891       2.26841914       1.74076938
C        4.42137806       1.74297929      -0.00002000
C        5.66312793       1.78179932       0.80297969
N        6.63773722       1.81182926       1.43700948
H        3.39851874      -2.12353911       0.68931972
H        4.48649820      -1.07971952      -0.22661992
H        2.74203885      -1.06683952      -0.56880979
H        4.07054828      -0.11750995       2.03670915
H        2.33737900      -0.27757990       1.78393934
H        1.83386926       2.00146920       2.16599914
H        2.69404898       3.27076872       1.31300948
H        3.53368855       2.32085913       2.55995889
H        4.24253828       2.74193893      -0.41875984
H        4.58064804       1.10448961      -0.87666963
