14
Properties=species:S:1:pos:R:3 atomization_energy=-1499.45 smiles=C.C.C.C.N.C.C.H.H.H.H.H.H.H pbc="F F F"
C        0.99131961      -0.00942000       0.08838997
C        2.51999896       0.00000000       0.00000000
C        2.97706876      -0.75838973      -1.25513945
C        4.41998822      -1.04146957      -1.22678953
N        5.55489801      -1.28636948      -1.20928947
C        3.00201878       1.36116943       0.00000000
C        3.39929870       2.48306901       0.00000000
H        0.64629977       0.51539981       0.98674958
H        0.60958974      -1.03504957       0.13446995
H        0.53574979       0.48319982      -0.77859970
H        2.90474886      -0.51614980       0.88974966
H        2.73072886      -0.19243993      -2.16245919
H        2.44289914      -1.71429932      -1.32388950
H        3.76138850       3.48591872       0.00323000
