18
Properties=species:S:1:pos:R:3 atomization_energy=-1767.04 smiles=N.C.C.C.C.C.C.H.H.H.H.H.H.H.H.H.H.H pbc="F F F"
N        0.92968966       0.13139995       0.27666990
C        2.35578909       0.05289998      -0.01293000
C        3.10661866       1.03661957       0.92058965
C        4.10799828      -0.10225996       1.20942952
C        3.00287872      -1.09862960       0.79252971
C        2.62931895       0.16321994      -1.46032943
C        2.39968918      -0.85359968      -2.30217905
H        0.68425973      -0.00917000       1.25418955
H        0.37330984      -0.53588977      -0.25493990
H        2.55982894       1.35763943       1.81680928
H        3.54386861       1.92571923       0.45541982
H        4.97832815      -0.10498996       0.54325980
H        4.45233809      -0.18121992       2.24370910
H        3.36224864      -1.96604921       0.23012991
H        2.42153905      -1.46882946       1.64666937
H        3.01055893       1.10642954      -1.84227921
H        2.00890918      -1.80689934      -1.96321918
H        2.59873892      -0.74382971      -3.36423878
