16
Properties=species:S:1:pos:R:3 atomization_energy=-1634.23 smiles=C.N.C.C.C.C.C.H.H.H.H.H.H.H.H.H pbc="F F F"
C        0.95239960      -0.00444000      -0.54236976
N        2.11201918      -0.01911999       0.33294987
C        3.27152874       0.74547971      -0.08740997
C        3.59732852       1.19108958      -1.49865943
C        3.79250851      -0.07854997      -2.28961900
C        3.57200859      -1.13832951      -1.49345938
C        3.25818875      -0.79635972      -0.09664996
H        0.36089987       0.89550963      -0.34258986
H        0.31617987      -0.86566969      -0.31199987
H        1.15007957      -0.02793999      -1.61749937
H        3.83745855       1.25304952       0.68171976
H        4.52149805       1.77838932      -1.50617940
H        2.79165879       1.80033923      -1.92013930
H        4.04117844      -0.11620995      -3.33910861
H        3.63123856      -2.16713918      -1.82504928
H        3.82399844      -1.30848947       0.67263975
