19
Properties=species:S:1:pos:R:3 atomization_energy=-1771.21 smiles=C.N.C.N.C.C.C.H.H.H.H.H.H.H.H.H.H.H.H pbc="F F F"
C        1.80339925      -0.75915972       0.24629991
N        3.16731871      -0.56364980      -0.26512991
C        3.37806855      -1.49651940      -1.38250946
N        3.46118874       0.73162968      -0.55382976
C        4.58901837       1.17260960      -0.07576997
C        5.56148789       0.35879984       0.74718969
C        4.98269802       2.59215888      -0.39781984
H        1.63797934      -0.12389995       1.12363954
H        1.64886932      -1.79451934       0.56893980
H        1.04792956      -0.50408981      -0.50545978
H        3.22787872      -2.53299906      -1.06142954
H        4.40859849      -1.42260944      -1.74702933
H        2.70556891      -1.28222948      -2.22066923
H        6.07734786      -0.35337987       0.09749996
H        5.03899817      -0.17779994       1.54327941
H        6.30518734       1.01495959       1.20773953
H        4.19812823       3.09215882      -0.97236960
H        5.90616784       2.58509890      -0.98313960
H        5.14933809       3.14237880       0.53214978
