19
Properties=species:S:1:pos:R:3 atomization_energy=-1801.31 smiles=C.C.N.C.N.C.C.H.H.H.H.H.H.H.H.H.H.H.H pbc="F F F"
C        1.14681957       0.72806973      -0.68781975
C        2.43368905       1.19088948      -0.02648999
N        3.57313853       0.63065978      -0.72724972
C        4.82941788       1.14599950      -0.58801977
N        5.12884778       2.25679903      -0.01547999
C        6.56040728       2.55840907      -0.05048998
C        6.79883710       3.84010853       0.72787972
H        0.27997989       1.16255949      -0.18156992
H        1.05481960      -0.36226987      -0.65095976
H        1.11725960       1.03099959      -1.73976926
H        2.45081906       0.86904966       1.02084963
H        2.46641893       2.28622919      -0.04530998
H        3.50984855      -0.35721987      -0.94469965
H        5.59388773       0.49185979      -1.04645961
H        6.89512722       2.69710900      -1.08549954
H        7.14324706       1.74688929       0.40117986
H        6.21826780       4.66795818       0.30688988
H        7.85794709       4.11353846       0.70080969
H        6.50030753       3.72175861       1.77470932
