20
Properties=species:S:1:pos:R:3 atomization_energy=-1918.51 smiles=C.C.N.C.C.C.C.H.H.H.H.H.H.H.H.H.H.H.H.H pbc="F F F"
C        3.09557866      -1.15839956      -0.51259978
C        2.45806904       0.08614997       0.09661996
N        2.03493917      -0.16986994       1.46941941
C        3.43009875       1.23179957       0.13459994
C        3.54642851       2.17296904      -1.04205958
C        2.92688891       2.65450892       0.24403991
C        3.64238857       3.63383858       1.10790959
H        3.41752862      -0.96194965      -1.54151940
H        2.38703905      -1.99350915      -0.53518980
H        3.98029848      -1.47759936       0.05103998
H        1.57486940       0.35641986      -0.49293980
H        2.83639889      -0.46347981       2.02463926
H        1.38412942      -0.95279961       1.48037942
H        4.34787850       0.97968961       0.65686974
H        2.88980883       2.02834916      -1.89294922
H        4.53549840       2.52989892      -1.30720952
H        1.85372925       2.81152886       0.26497990
H        4.72693809       3.48430859       1.08994953
H        3.30280874       3.53951867       2.14383916
H        3.43389861       4.65400830       0.77179969
