21
Properties=species:S:1:pos:R:3 atomization_energy=-1935.18 smiles=C.C.C.N.C.C.N.H.H.H.H.H.H.H.H.H.H.H.H.H.H pbc="F F F"
C        0.93301961      -0.31344986       0.04791998
C        2.47173909      -0.31982987       0.06201997
C        2.95792893      -0.96828959       1.36614943
N        2.94249888      -1.13462958      -1.06467956
C        2.98254889       1.13530961      -0.08412997
C        4.50627844       1.28952955      -0.08343997
N        4.86937807       2.69785893      -0.25268990
H        0.54252980       0.12657995      -0.87712963
H        0.53499979       0.27023990       0.88624964
H        0.52609979      -1.32810948       0.13026995
H        2.68398904      -0.35695984       2.23379904
H        4.04508831      -1.09961962       1.37934951
H        2.51248907      -1.96013923       1.50794938
H        2.56172899      -0.76966970      -1.93685927
H        2.58151908      -2.08417922      -0.97861959
H        2.56647887       1.74196934       0.73276972
H        2.58168890       1.56363939      -1.01396963
H        4.95954814       0.70668971      -0.89164965
H        4.92927798       0.94126965       0.86325967
H        4.53784811       3.02241875      -1.16015957
H        5.88575778       2.77402890      -0.28190988
