19
Properties=species:S:1:pos:R:3 atomization_energy=-1799.4 smiles=C.C.N.C.C.C.N.H.H.H.H.H.H.H.H.H.H.H.H pbc="F F F"
C        1.49082946      -0.34736987      -0.17616992
C        2.56208907       0.47975982      -0.86796969
N        2.78604896       1.73735937      -0.15107993
C        1.96204925       2.87173889      -0.55936976
C        2.65910892       3.67551865      -1.64462940
C        3.72615851       1.80754934       0.84415965
N        4.09953837       2.82017878       1.53868938
H        1.33858943      -1.29117954      -0.70834973
H        0.53524979       0.18594992      -0.14992994
H        1.77416933      -0.57790980       0.85595967
H        2.26159913       0.67795971      -1.90374925
H        3.49361861      -0.09619996      -0.92463963
H        1.73492930       3.51539858       0.29770988
H        0.99239959       2.52414905      -0.93491961
H        3.63189866       4.04588846      -1.30447955
H        2.04676922       4.53586832      -1.93248928
H        2.82828896       3.06589871      -2.53890891
H        4.21168826       0.83545965       1.04746956
H        3.58842854       3.65239855       1.24956949
