15
Properties=species:S:1:pos:R:3 atomization_energy=-1424.38 smiles=N.C.C.C.C.O.H.H.H.H.H.H.H.H.H pbc="F F F"
N        1.96849922      -0.54605979      -1.18714955
C        2.72527901      -0.19481992       0.00411000
C        3.03283876       1.26607953      -0.02360999
C        4.27307844       1.77985927      -0.00501000
C        4.57983805       3.24015867      -0.03462998
O        5.31293807       3.56117853       1.13594952
H        1.75936935      -1.54309938      -1.16399955
H        2.56183901      -0.40513985      -2.00454915
H        3.63579869      -0.80095966       0.05619998
H        2.12683910      -0.41846985       0.89284968
H        2.17137910       1.93177922      -0.05446998
H        5.13548813       1.11708952       0.02214999
H        3.67864857       3.86077850      -0.06582997
H        5.19488792       3.48031873      -0.90635962
H        4.76608829       3.28314860       1.89057920
