17
Properties=species:S:1:pos:R:3 atomization_energy=-1787.94 smiles=C.C.C.C.C.C.C.H.H.H.H.H.H.H.H.H.H pbc="F F F"
C        0.97083959      -0.07370997      -0.18727993
C        2.41395901       0.07206997       0.17053992
C        3.12800878       1.20687958       0.13136995
C        4.58115825       1.33089951       0.51571980
C        4.81746798       2.83929893       0.64961975
C        3.59179868       3.44228862       0.04673998
C        2.66216895       2.52087908      -0.22339992
H        0.78448968      -1.08730952      -0.55637976
H        0.66333976       0.61904976      -0.97736961
H        0.34372986       0.08600996       0.69517974
H        2.90872888      -0.83745969       0.49889980
H        5.21548774       0.92225964      -0.27970989
H        4.81470799       0.80805969       1.44986941
H        5.72426779       3.14820865       0.11896995
H        4.91021789       3.13408870       1.70023930
H        3.46346855       4.50378844      -0.10861996
H        1.68282932       2.73692889      -0.62326975
