19
Properties=species:S:1:pos:R:3 atomization_energy=-1799.65 smiles=C.C.C.N.C.C.N.H.H.H.H.H.H.H.H.H.H.H.H pbc="F F F"
C        0.93491961      -0.17664993       0.01674999
C        2.43666908       0.07127997      -0.11645995
C        3.07879889      -0.84568966      -1.15536956
N        2.72335902       1.48517938      -0.41652983
C        2.13411911       2.07717917      -1.60975937
C        3.48628864       2.23186921       0.44713982
N        3.80146854       3.47429861       0.37322985
H        0.49133980       0.50788980       0.74783970
H        0.74416973      -1.20106953       0.35403987
H        0.40689983      -0.03930998      -0.93219966
H        2.88229895      -0.18923993       0.85259968
H        2.63981895      -0.71447974      -2.14933922
H        2.95082884      -1.89587929      -0.87236965
H        4.15280828      -0.64652977      -1.23713953
H        1.65571936       1.33888946      -2.25954919
H        2.90311880       2.57680907      -2.20831913
H        1.37507944       2.81391894      -1.32743942
H        3.86406839       1.65632937       1.30889951
H        3.39260864       3.89127854      -0.46266983
