14
Properties=species:S:1:pos:R:3 atomization_energy=-1323.74 smiles=C.C.N.C.C.H.H.H.H.H.H.H.H.H pbc="F F F"
C        1.03985957      -0.00759000      -0.07079997
C        2.52620908       0.04599998       0.01374999
N        3.33742859      -0.64124974      -0.99084958
C        3.33290857       0.81997969      -1.00011961
C        4.56512815       1.54832945      -0.58805976
H        0.60051975       0.73404973       0.60355978
H        0.67879972      -0.99639961       0.23022991
H        0.67451974       0.19681992      -1.08189953
H        2.88823883      -0.02516999       1.03303962
H        2.75696879      -1.01162963      -1.74563937
H        2.82768891       1.29772943      -1.83148928
H        5.08660803       1.05065960       0.23644990
H        4.30877826       2.56199899      -0.26454989
H        5.25741813       1.62618941      -1.43153944
