13
Properties=species:S:1:pos:R:3 atomization_energy=-1434.77 smiles=N.C.C.C.N.C.C.H.H.H.H.H.H pbc="F F F"
N        0.99386961       0.01620999       0.24077991
C        2.37238895       0.03193999      -0.00856000
C        3.07495891       1.23403951      -0.00877000
C        4.45549829       1.19994956      -0.13513995
N        5.17471807       0.06191998      -0.22171991
C        4.47878846      -1.09170955      -0.15091994
C        3.09941889      -1.15564953      -0.02532999
H        0.51100981       0.85542964      -0.06503998
H        0.52800978      -0.82822966      -0.07664997
H        2.56533910       2.18538904       0.08621997
H        5.03628813       2.11752909      -0.15780994
H        5.07805804      -1.99661927      -0.18628992
H        2.60913901      -2.11823915       0.05663998
