19
Properties=species:S:1:pos:R:3 atomization_energy=-1781.68 smiles=C.C.N.N.C.C.C.H.H.H.H.H.H.H.H.H.H.H.H pbc="F F F"
C        1.87838920       2.21232918       1.93304920
C        3.30089859       1.81631925       1.68730934
N        4.08501848       2.57634907       0.99278964
N        5.34194809       2.08483919       0.86665965
C        6.30009731       2.93779896       0.14674995
C        6.53770756       4.24800832       0.89738962
C        7.61719683       2.17930912      -0.01810999
H        1.22084952       1.44722940       1.51383942
H        1.65666939       3.17936879       1.47644948
H        1.70961934       2.26718903       3.01109891
H        3.63365867       0.85818965       2.12809924
H        5.33467792       1.15864949       0.43220982
H        5.90347749       3.16158877      -0.85133967
H        6.92109715       4.06741837       1.90812922
H        5.61460766       4.83092834       0.98443961
H        7.26807736       4.86864833       0.36728984
H        8.05737659       1.92235918       0.95213964
H        8.34590679       2.78533890      -0.56756977
H        7.46995700       1.25012954      -0.57982979
