16
Properties=species:S:1:pos:R:3 atomization_energy=-1595.31 smiles=C.C.C.C.C.C.H.H.H.H.H.H.H.H.H.H pbc="F F F"
C        0.99038959      -0.11977995      -0.07905997
C        2.50101910      -0.01288999       0.07306998
C        3.02738892       1.43281939       0.00000000
C        2.50540891       2.29733908       1.14959950
C        4.47138809       1.43281939       0.00000000
C        5.66154783       1.43281939       0.00000000
H        0.69180973      -1.17227954      -0.12258995
H        0.65170975       0.36590985      -1.00009961
H        0.46704983       0.33566987       0.76702968
H        2.96599874      -0.60834978      -0.72329972
H        2.79994888      -0.47901982       1.02039959
H        2.67861893       1.87944925      -0.94009965
H        2.76407898       1.86646933       2.12375915
H        1.41764949       2.40807894       1.10440963
H        2.93644873       3.30477869       1.10984951
H        6.72722751       1.43271946       0.00016000
