16
Properties=species:S:1:pos:R:3 atomization_energy=-1664.61 smiles=C.C.C.C.C.C.N.H.H.H.H.H.H.H.H.H pbc="F F F"
C        2.13682915      -0.68085976       1.44429945
C        2.61720907      -0.18493993       0.08820997
C        3.01034874       1.27882944       0.10591996
C        1.86671926       2.25597921       0.21346991
C        4.30673842       1.63645942       0.00000000
C        4.77606799       2.96180878       0.00000000
N        5.16028775       4.04679837       0.00000000
H        1.91639925      -1.75225928       1.39578940
H        1.22257951      -0.16816994       1.76022929
H        2.89964874      -0.52755978       2.21582902
H        1.83245924      -0.34011985      -0.66126977
H        3.46431866      -0.80587967      -0.22821992
H        1.12940960       2.05946918      -0.57162978
H        2.17993919       3.29845879       0.10681996
H        1.37268948       2.16037922       1.18497950
H        5.07238816       0.87160963      -0.08458997
