18
Properties=species:S:1:pos:R:3 atomization_energy=-1774.15 smiles=C.N.C.C.C.C.C.H.H.H.H.H.H.H.H.H.H.H pbc="F F F"
C        0.93536964      -0.07993997       0.06118997
N        2.39033904      -0.08933996       0.12242995
C        2.93051895       1.24779951      -0.10549996
C        4.42431822       1.19466953      -0.01875999
C        5.24922796       1.57878936      -1.00470958
C        6.68602737       1.51993941      -0.88927963
C        7.51217706       1.90308928      -1.86899933
H        0.55670981      -1.09086953       0.24104990
H        0.57647977       0.24360990      -0.92139963
H        0.51016980       0.57258977       0.83061968
H        2.75050885      -0.71238974      -0.60015974
H        2.56694897       1.93865928       0.66419971
H        2.60877893       1.63143941      -1.08121963
H        4.82916808       0.82583971       0.92162963
H        4.83676830       1.95135924      -1.94039923
H        7.10726715       1.14368953       0.04149998
H        7.14796717       2.28510909      -2.81743897
H        8.58789650       1.84004923      -1.73753928
