15
Properties=species:S:1:pos:R:3 atomization_energy=-1476.52 smiles=C.C.N.N.C.C.C.H.H.H.H.H.H.H.H pbc="F F F"
C        0.91397964      -0.26557991      -0.52045981
C        2.17430917      -0.41968983       0.31500987
N        2.87183881       0.86408965       0.42088983
N        4.02642842       0.83382965       1.13527958
C        4.67379814       1.94695921       1.11573955
C        5.88312748       1.89061920       1.88652928
C        6.89723721       1.84647927       2.53091910
H        0.39507984      -1.22623957      -0.60027978
H        1.15022958       0.07570997      -1.53395943
H        0.22275991       0.45369983      -0.06831997
H        2.83080899      -1.16177953      -0.15289994
H        1.90876925      -0.78481966       1.31356953
H        2.22107902       1.56212945       0.79056966
H        4.38889848       2.87195892       0.58966976
H        7.79357688       1.79410930       3.10291873
