20
Properties=species:S:1:pos:R:3 atomization_energy=-1917.92 smiles=C.C.N.C.C.C.C.H.H.H.H.H.H.H.H.H.H.H.H.H pbc="F F F"
C        2.99851894      -0.97702959      -0.76269967
C        2.48805912      -0.06199998       0.35455986
N        2.71305886      -0.70843975       1.65582938
C        3.09994879       1.36865950       0.26701990
C        2.48226912       2.30542907       1.31268953
C        4.60939815       1.39852947       0.40109984
C        5.44228761       1.81768928      -0.56157980
H        2.83208881      -0.51917979      -1.74327932
H        2.46773913      -1.93552924      -0.75230968
H        4.06814836      -1.18957950      -0.66383976
H        1.40214941       0.03592999       0.22902992
H        3.71075848      -0.87644966       1.77908929
H        2.27647910      -1.63082941       1.65467938
H        2.82652895       1.77285935      -0.71776970
H        2.73132890       2.00100920       2.33542899
H        1.39087941       2.32314903       1.22058950
H        2.84208895       3.33174861       1.17600950
H        5.02686811       1.07252959       1.35106949
H        5.07672775       2.16538926      -1.52260945
H        6.51575726       1.82602933      -0.40066983
