14
Properties=species:S:1:pos:R:3 atomization_energy=-1537.67 smiles=N.C.C.C.C.C.C.H.H.H.H.H.H.H pbc="F F F"
N        0.99999962       0.00000000       0.00000000
C        2.15100915       0.00000000       0.00000000
C        3.55700851       0.00000000       0.00000000
C        4.32215838      -1.09770960      -0.07170997
C        5.77560762      -0.75921971      -0.05333998
C        5.77279766       0.74541971      -0.31938986
C        4.38424852       1.24315952       0.08088996
H        3.95074847      -2.11373920      -0.12109995
H        6.20935748      -0.99615958       0.92300963
H        6.32934755      -1.29535954      -0.82940969
H        5.93708751       0.93140961      -1.39028946
H        6.57043745       1.26317948       0.22324991
H        4.03772831       2.02501915      -0.60202977
H        4.38445846       1.63737942       1.10250957
