15
Properties=species:S:1:pos:R:3 atomization_energy=-1534.19 smiles=C.N.C.N.C.C.C.H.H.H.H.H.H.H.H pbc="F F F"
C        1.10457957      -0.03703999      -0.23653991
N        2.51536893       0.04080998       0.04940998
C        3.28121877      -1.04503962       0.35510985
N        4.54942810      -0.86010963       0.58259975
C        4.71208839       0.62371978       0.41123983
C        3.33340870       1.14407951       0.03135999
C        3.06724867       2.42263896      -0.25518990
H        0.64737975       0.94863961      -0.36524984
H        0.57936979      -0.53751977       0.58440979
H        0.93344965      -0.61117974      -1.15316949
H        2.77665896      -2.02434921       0.38775984
H        5.05211789       1.05541958       1.35789946
H        5.44466811       0.81521965      -0.37871985
H        3.85041854       3.17266864      -0.22273991
H        2.07426916       2.75611894      -0.53026978
