19
Properties=species:S:1:pos:R:3 atomization_energy=-1802.11 smiles=N.C.C.C.C.N.C.H.H.H.H.H.H.H.H.H.H.H.H pbc="F F F"
N        2.01182916      -0.28279988      -1.43881945
C        2.35800910       0.08074997      -0.06789998
C        3.09992886       1.41372939      -0.01630000
C        2.28925918       2.60939891      -0.49608981
C        3.02854889       3.76595847       0.14500995
N        3.37951870       3.27616861       1.47895942
C        3.50139874       1.81589924       1.40297945
H        1.55039944      -1.19180948      -1.44135942
H        2.86081900      -0.39139985      -1.99202923
H        2.98268894      -0.70892971       0.36467986
H        1.43858945       0.13165995       0.52614978
H        4.01266854       1.34624946      -0.62628977
H        1.25652954       2.56160888      -0.12894995
H        2.26647922       2.68984892      -1.58710936
H        3.93937842       3.99780850      -0.41955982
H        2.41480912       4.66937830       0.19948992
H        4.24834846       3.70086861       1.79809929
H        4.52581847       1.49506938       1.62088932
H        2.84385880       1.37014951       2.15710926
