22
Properties=species:S:1:pos:R:3 atomization_energy=-2051.29 smiles=C.C.C.C.N.C.C.H.H.H.H.H.H.H.H.H.H.H.H.H.H.H pbc="F F F"
C        1.92328928      -1.34800947       0.26041989
C        3.18026885      -0.75658973      -0.38450985
C        2.88146878      -0.35646985      -1.83100934
C        3.68533863       0.43829984       0.45595981
N        4.89387792       1.09532961      -0.07281997
C        5.15219801       2.33558896       0.66341975
C        6.06921774       0.22559991       0.00006000
H        2.13028923      -1.67660936       1.28435954
H        1.56929943      -2.21745908      -0.30351987
H        1.11092961      -0.61427975       0.29671989
H        3.93991841      -1.54708936      -0.39451986
H        2.13416907       0.44301982      -1.87521929
H        2.49492908      -1.21096949      -2.39685903
H        3.78416846      -0.00730000      -2.34215917
H        3.85617850       0.11030996       1.49044945
H        2.87345878       1.17748955       0.49529979
H        4.30465820       3.02418885       0.57008980
H        6.02224779       2.85718896       0.24829990
H        5.33441802       2.15377925       1.72915936
H        5.95595785      -0.65080975      -0.64545976
H        6.26797756      -0.11675996       1.02213961
H        6.96006719       0.75157969      -0.36297987
