15
Properties=species:S:1:pos:R:3 atomization_energy=-1521.24 smiles=C.N.C.N.C.C.C.H.H.H.H.H.H.H.H pbc="F F F"
C        1.05954954       0.04137999      -0.03831999
N        2.44800910       0.05333998       0.35276985
C        3.17419877       1.22104950       0.43145983
N        4.41056819       1.22238950       0.01781999
C        4.69845796      -0.12299995      -0.45033982
C        4.62449816      -1.30750954       0.47058981
C        3.39182868      -0.89459966      -0.27278990
H        0.65185977      -0.97221959       0.02965999
H        0.93899961       0.39656986      -1.06656953
H        0.46964982       0.68421973       0.62364976
H        2.63811900       2.10912923       0.80197970
H        5.32395788      -0.22255991      -1.32730947
H        5.12024783      -2.21824912       0.15863994
H        4.67538833      -1.12339957       1.53644944
H        3.02938890      -1.47514947      -1.11047958
