20
Properties=species:S:1:pos:R:3 atomization_energy=-1911.52 smiles=C.C.C.N.C.C.C.H.H.H.H.H.H.H.H.H.H.H.H.H pbc="F F F"
C        2.88367895      -0.84702966      -1.10649956
C        2.63430905      -0.17008994       0.23666991
C        3.23531870       1.24803948       0.33011987
N        2.83331893       1.81351925       1.62336935
C        3.10608876       3.23916877       1.73219932
C        4.73780802       1.21327946       0.19726993
C        5.42509780       1.83499933      -0.77132972
H        2.36274914      -1.80908932      -1.14278959
H        3.94808839      -1.04121957      -1.26763956
H        2.51402905      -0.23044991      -1.93152928
H        3.03104873      -0.81170966       1.03494958
H        1.54828945      -0.11305995       0.39052984
H        2.79206882       1.84849930      -0.47535982
H        3.29621860       1.31172953       2.37855896
H        2.61226893       3.80179859       0.93314963
H        4.17813830       3.45821855       1.71617932
H        2.70977906       3.60922846       2.68314903
H        5.28656794       0.63474975       0.93696961
H        4.92628786       2.42236896      -1.53623937
H        6.50750755       1.76780932      -0.81530967
