20
Properties=species:S:1:pos:R:3 atomization_energy=-1911.04 smiles=C.N.C.C.C.C.C.H.H.H.H.H.H.H.H.H.H.H.H.H pbc="F F F"
C        2.52993904      -0.89817967      -0.22959991
N        3.80282861      -0.23202992       0.01558999
C        3.84824849       1.07329958      -0.65441973
C        5.16583803       1.83893923      -0.38349986
C        6.39799729       1.08440960      -0.89270963
C        5.11415806       3.20090879      -1.04338956
C        5.21608778       4.36108805      -0.38064984
H        2.52457902      -1.87002922       0.27406988
H        2.36727899      -1.07285951      -1.29843949
H        1.69366935      -0.31550986       0.17025993
H        4.55535839      -0.82267970      -0.33565987
H        3.00971892       1.68695936      -0.29953988
H        3.71858858       0.93714964      -1.73621934
H        5.27453780       1.96633926       0.70235970
H        6.30180761       0.83121966      -1.95443920
H        6.55259763       0.15495994      -0.33547986
H        7.30560709       1.68680935      -0.77155972
H        4.99024828       3.22394866      -2.12467915
H        5.34453802       4.39326835       0.69685970
H        5.17527774       5.30825783      -0.90969967
