9
Properties=species:S:1:pos:R:3 atomization_energy=-992.26 smiles=O.C.C.C.C.N.H.H.H pbc="F F F"
O        1.00609960       0.00658000      -0.11660995
C        2.41999907       0.00000000       0.00000000
C        2.90201889       1.36116943       0.00000000
C        3.29929881       2.48306901       0.00000000
C        3.81223854       3.92941840      -0.00038000
N        4.21190829       5.01877786       0.00029000
H        0.71912970      -0.92165966      -0.11488995
H        2.83414885      -0.56451978      -0.84090968
H        2.68852898      -0.51311981       0.92838965
