21
Properties=species:S:1:pos:R:3 atomization_energy=-1931.62 smiles=C.C.C.C.N.C.N.H.H.H.H.H.H.H.H.H.H.H.H.H.H pbc="F F F"
C        0.99180958      -0.03929999       0.12243995
C        2.53527913      -0.06874997       0.06308997
C        3.06062876      -0.68358973       1.37661942
C        3.00725894      -0.89264964      -1.16550950
N        2.52699913      -2.27752905      -1.17502957
C        3.02527892       1.40071945      -0.07941997
N        4.47843823       1.54759945      -0.12998994
H        0.56990976       0.36756987      -0.80289970
H        0.64242977       0.58653978       0.95136965
H        0.57172976      -1.03946959       0.27089990
H        2.83624900      -0.03426999       2.23037919
H        4.14443845      -0.83531966       1.34557952
H        2.59880907      -1.65556935       1.57962937
H        4.10174829      -0.91463962      -1.21361948
H        2.65745893      -0.41006984      -2.08550913
H        2.94159881      -2.78318878      -0.39316985
H        2.87307876      -2.73801896      -2.01668919
H        2.64710906       2.00325924       0.75566972
H        2.60797904       1.83712925      -0.99512963
H        4.88206832       1.27274952       0.76466969
H        4.70973818       2.53402908      -0.24571991
