19
Properties=species:S:1:pos:R:3 atomization_energy=-1784.25 smiles=C.C.C.C.C.N.N.H.H.H.H.H.H.H.H.H.H.H.H pbc="F F F"
C        0.97126963       0.02742999      -0.14537995
C        2.48236905      -0.08047997      -0.02593999
C        3.13931877       1.29515944       0.01988999
C        4.64479821       1.15444956       0.13882995
C        5.43371794       0.95354960      -1.13605954
N        5.16304775       1.18666949       1.33392951
N        6.50518761       1.05105961       1.40154949
H        0.52049980      -0.96952961      -0.16575993
H        0.68743973       0.54769976      -1.06549964
H        0.54863981       0.57400976       0.70348970
H        2.87319888      -0.65754977      -0.87265964
H        2.73539901      -0.64448973       0.88024964
H        2.76692881       1.86599923       0.87831969
H        2.90678896       1.86952922      -0.88335962
H        4.76265810       0.89117962      -1.99687917
H        6.00832769       0.02511999      -1.07807962
H        6.11136766       1.79886928      -1.28428952
H        6.77546719       0.89309967       2.37600915
H        6.96715719       1.92752920       1.14662957
