17
Properties=species:S:1:pos:R:3 atomization_energy=-1628.14 smiles=C.N.N.C.C.C.C.H.H.H.H.H.H.H.H.H.H pbc="F F F"
C        1.35052950      -0.15091994      -0.47332982
N        2.79756889      -0.09583996      -0.29645989
N        3.31529863       1.14977955      -0.16256993
C        4.60551831       1.16578958      -0.10565996
C        5.26425782       2.47948894       0.04056998
C        5.31345787       3.14553874       1.39382942
C        6.57004734       2.59269887       0.78839968
H        1.03353962      -1.18871956      -0.61200978
H        1.04603960       0.41541983      -1.35909942
H        0.83324967       0.25447991       0.40186986
H        3.05058876      -0.69069973       0.49640980
H        5.24101811       0.26456989      -0.17031994
H        5.13337814       3.13206879      -0.81736970
H        4.87572824       2.62433894       2.23786914
H        5.18901819       4.22180826       1.42749949
H        7.30582712       3.29662864       0.41589982
H        6.99658709       1.70250927       1.23632954
