17
Properties=species:S:1:pos:R:3 atomization_energy=-1655.91 smiles=C.N.C.N.C.C.C.H.H.H.H.H.H.H.H.H.H pbc="F F F"
C        1.22023952       0.12740995      -0.22153992
N        2.66238898       0.05505998       0.06446997
C        3.15531885      -1.19809946       0.39101983
N        4.34809854      -1.67092938       0.28283990
C        3.44817854       1.21940947      -0.04611998
C        4.62371795       1.37550941       0.89801963
C        3.16801868       2.24407901      -0.87242965
H        0.79839969       1.08871954       0.09340996
H        0.65915977      -0.64813977       0.31173987
H        1.04488960      -0.00300000      -1.29474953
H        2.37329911      -1.88148922       0.76489969
H        4.94252790      -0.96125965      -0.14854993
H        4.38826816       0.96137963       1.88411927
H        4.87817787       2.43008904       1.05369956
H        5.51664762       0.88143964       0.50651980
H        2.33511912       2.21776919      -1.56568933
H        3.78611847       3.13687873      -0.89754966
