17
Properties=species:S:1:pos:R:3 atomization_energy=-1640.39 smiles=N.C.C.N.C.C.C.H.H.H.H.H.H.H.H.H.H pbc="F F F"
N        0.98360963       0.05133998      -0.00829000
C        2.44248910       0.01569999       0.03517998
C        3.04579875      -1.06921963       0.94482960
N        3.89686843      -0.25607991       1.86244931
C        4.50438798       0.80193971       0.94094963
C        3.02692892       1.22338949       0.74243968
C        2.95303876       0.88727965       2.25352907
H        0.63114974      -0.82058970      -0.40172984
H        0.67832975       0.79346971      -0.63692976
H        2.83345897      -0.06962997      -0.98577962
H        3.64981846      -1.78383929       0.37512984
H        2.29263915      -1.63009941       1.51022945
H        5.04101783       0.41565982       0.06679998
H        5.15539808       1.52699938       1.44690944
H        2.81233885       2.23457900       0.40079985
H        3.39097858       1.62457941       2.93899879
H        1.98144924       0.58216978       2.65763884
