19
Properties=species:S:1:pos:R:3 atomization_energy=-1781.97 smiles=C.N.C.C.N.C.C.H.H.H.H.H.H.H.H.H.H.H.H pbc="F F F"
C        2.88011881      -0.75375970       1.38209942
N        2.60062888      -0.13380994       0.09107996
C        3.02697888       1.28036955       0.05720998
C        4.57391836       1.48734943       0.02519999
N        5.18253782       0.58611977      -0.96539964
C        4.92068812       2.93974872      -0.19592992
C        5.70563767       3.45652869      -1.15263959
H        2.48055907      -1.77324933       1.38703943
H        2.40678902      -0.20547992       2.20367901
H        3.95526848      -0.82891966       1.57213943
H        1.59304936      -0.16576993      -0.06841998
H        2.58547892       1.83200933       0.89673968
H        2.60022894       1.71671930      -0.85579969
H        4.98014796       1.20936946       1.00560957
H        4.79180791       0.82449970      -1.87662932
H        4.77562793      -0.33699987      -0.78003969
H        4.49074846       3.62993855       0.52770979
H        6.19510732       2.83196895      -1.89276931
H        5.89383793       4.52457801      -1.20041952
