14
Properties=species:S:1:pos:R:3 atomization_energy=-1315.05 smiles=C.C.N.C.C.H.H.H.H.H.H.H.H.H pbc="F F F"
C        1.20374954       0.29674988       0.09877996
C        2.68551892       0.06522998      -0.15912993
N        3.39138862       1.34988946      -0.17054994
C        3.99598844       1.70286934       1.11068952
C        4.83829793       1.20839950      -0.03719998
H        0.66343975      -0.65485973       0.07005997
H        0.76631968       0.95390962      -0.66118971
H        1.03674959       0.74998969       1.08208954
H        2.80294885      -0.40946985      -1.13980956
H        3.07511889      -0.64012976       0.58604975
H        3.83849841       1.05048959       1.96067922
H        4.02139845       2.76108885       1.34116952
H        5.43292764       1.93245925      -0.58084977
H        5.26057782       0.21240991       0.01902999
