17
Properties=species:S:1:pos:R:3 atomization_energy=-1792.26 smiles=C.C.C.C.C.C.C.H.H.H.H.H.H.H.H.H.H pbc="F F F"
C        0.94637961       0.06025998      -0.00496000
C        2.42915895       0.03750998      -0.00028000
C        3.27763869       1.07995961      -0.00291000
C        4.63458838       0.59186977       0.00392000
C        4.62655819      -0.75016972       0.01096000
C        5.78518763      -1.67572935       0.01983999
C        3.20702884      -1.25120952       0.00907000
H        0.56087977       1.08487957      -0.00284000
H        0.55435979      -0.44965982       0.88038968
H        0.56014978      -0.44421981      -0.89593966
H        3.01213877       2.12631904      -0.00918000
H        5.50466794       1.23051949       0.00360000
H        6.73443712      -1.13038953       0.01608999
H        5.76377782      -2.32205896      -0.86295965
H        5.76204784      -2.30719917       0.91328965
H        2.99814877      -1.84622933      -0.88543965
H        2.99241883      -1.83652934       0.90864965
