17
Properties=species:S:1:pos:R:3 atomization_energy=-1668.82 smiles=C.C.C.C.N.C.N.H.H.H.H.H.H.H.H.H.H pbc="F F F"
C        0.97533960      -0.02174999      -0.11673995
C        2.47343904      -0.14831994      -0.02026999
C        2.97558884      -1.56510935      -0.00366000
C        3.25054866       0.94740962       0.04239998
N        4.61707810       1.03322957       0.13091995
C        5.42609804       2.13257913       0.19246992
N        5.12470804       3.38143869       0.18347993
H        0.64553975       1.02243957      -0.13066995
H        0.49820981      -0.50941981       0.73960972
H        0.61334979      -0.49662980      -1.03450958
H        2.53988897      -2.10883918       0.84107969
H        4.06208837      -1.63783942       0.08744996
H        2.68826883      -2.07659919      -0.92826960
H        2.77243897       1.92431929       0.02275999
H        5.09541793       0.13967994       0.15117994
H        6.49137752       1.85183928       0.25887990
H        4.11207848       3.49294867       0.11861996
