15
Properties=species:S:1:pos:R:3 atomization_energy=-1454.38 smiles=C.C.C.C.C.H.H.H.H.H.H.H.H.H.H pbc="F F F"
C        1.03320957       0.01181000      -0.06547997
C        2.52298908       0.00396000      -0.01484999
C        3.31164866      -0.70754971      -1.08514956
C        3.32395864       0.79751968      -1.01747962
C        4.55772828       1.51921938      -0.59321975
H        0.63934975       0.78728967       0.59770979
H        0.64084973      -0.95345965       0.26715988
H        0.65677972       0.20387992      -1.07496963
H        2.88878891      -0.06844997       1.00402960
H        2.77354897      -1.17298948      -1.90352922
H        4.20036843      -1.24982952      -0.78097968
H        2.79327900       1.33849948      -1.79362924
H        5.09179799       0.98909961       0.20261992
H        4.30114827       2.51719909      -0.22476992
H        5.23729774       1.63286938      -1.44267949
