7
Properties=species:S:1:pos:R:3 atomization_energy=-861.3 smiles=O.C.C.C.C.N.H pbc="F F F"
O        0.96666963      -0.00194000       0.00000000
C        2.19150908       0.01704999       0.00000000
C        2.92710894      -1.22963949       0.00000000
C        3.53360856      -2.26734900       0.00000000
C        2.92550891       1.26824945       0.00000000
N        3.53527849       2.26007909       0.00000000
H        4.06521829      -3.19201866       0.00000000
