18
Properties=species:S:1:pos:R:3 atomization_energy=-1761.47 smiles=C.C.C.N.C.C.C.H.H.H.H.H.H.H.H.H.H.H pbc="F F F"
C        2.47704915       3.22874875       1.63636934
C        2.72554900       1.94908926       1.32759953
C        3.89200853       1.15422953       1.84066934
N        4.67451829       0.61603976       0.72681968
C        5.59591798       1.64743936       0.17393993
C        6.66930739       0.54625976       0.09979996
C        5.86333764      -0.11566996       1.23467955
H        1.60959938       3.73762848       1.22533951
H        3.12804865       3.79538862       2.29386902
H        2.04445925       1.42378946       0.66145977
H        3.48600855       0.31661987       2.42200914
H        4.49790811       1.75145926       2.53583905
H        5.86187766       2.47083902       0.84892966
H        5.29069810       2.06452917      -0.79019968
H        6.66885723      -0.01910999      -0.83980965
H        7.69086696       0.84731966       0.34327986
H        5.78861781      -1.20522946       1.17691954
H        6.20900774       0.16374994       2.23798900
