18
Properties=species:S:1:pos:R:3 atomization_energy=-1760.52 smiles=C.N.C.C.C.C.C.H.H.H.H.H.H.H.H.H.H.H pbc="F F F"
C        0.89365966       0.03628998       0.32953986
N        2.30146899       0.18371993      -0.02288999
C        2.98781884       1.08118960       0.93090962
C        4.08025850       0.00858000       1.13443957
C        3.08679880      -0.96863964       0.46905980
C        5.41066799       0.21787992       0.48638982
C        5.55393763       0.52348980      -0.80869966
H        0.43819982      -0.75411972      -0.27666990
H        0.35514987       0.96446961       0.11004996
H        0.72844974      -0.20934992       1.38560947
H        2.43750909       1.31395951       1.85214928
H        3.31544876       2.03005921       0.49288981
H        4.23610837      -0.22319991       2.19697911
H        3.49086870      -1.60426939      -0.32623987
H        2.57912900      -1.62269942       1.19033952
H        6.29054758       0.11177996       1.11486952
H        4.70257803       0.63903976      -1.47379937
H        6.54042719       0.66675973      -1.23851953
