13
Properties=species:S:1:pos:R:3 atomization_energy=-1491.94 smiles=C.C.C.C.C.C.C.H.H.H.H.H.H pbc="F F F"
C        0.99999962       0.00000000       0.00000000
C        2.19015911       0.00000000       0.00000000
C        3.59615871       0.00000000       0.00000000
C        4.37301827       1.09619953      -0.00504000
C        5.76075792       0.69774974      -0.00214000
C        5.84195761      -0.64008977       0.00471000
C        4.45870845      -1.23156957       0.00669000
H       -0.06505997       0.00214000      -0.00001000
H        4.03834829       2.12181922      -0.01005999
H        6.58974735       1.38844946      -0.00497000
H        6.75331756      -1.21831952       0.00836000
H        4.29487834      -1.84387925      -0.88625967
H        4.29366816      -1.83491934       0.90561966
