11
Properties=species:S:1:pos:R:3 atomization_energy=-1157.45 smiles=C.C.C.C.C.H.H.H.H.H.H pbc="F F F"
C        0.97635959       0.00502000      -0.00668000
C        2.47723890      -0.00649000      -0.00259000
C        3.16250877      -1.15974953       0.00527000
C        3.19276884       1.22764948      -0.00409000
C        3.79227838       2.26683904      -0.00404000
H        0.58225980       1.02682962       0.02008999
H        0.58332975      -0.52311979       0.86860966
H        0.58993975      -0.47546980      -0.91178966
H        2.65254907      -2.11762926       0.00721000
H        4.24836814      -1.17712948       0.00906000
H        4.32624817       3.19007874      -0.00401000
