17
Properties=species:S:1:pos:R:3 atomization_energy=-1652.54 smiles=C.N.C.C.C.C.N.H.H.H.H.H.H.H.H.H.H pbc="F F F"
C        0.72743972       0.94705964      -0.43251984
N        2.15974915       1.01397959      -0.19490992
C        2.80064885      -0.21565991       0.25527991
C        3.22301882      -1.00133963      -0.95018962
C        2.80635885      -2.24136923      -1.24061956
C        2.86357900       2.18627926      -0.25185990
N        2.43590906       3.37020869      -0.51411979
H        0.45721982       1.48912938      -1.34494944
H        0.18548992       1.38631940       0.41145983
H        0.37950984      -0.08418997      -0.55833981
H        2.11872918      -0.79238967       0.89212965
H        3.68256854       0.00262000       0.86930963
H        3.92521835      -0.51204979      -1.62178938
H        2.10810918      -2.77603898      -0.60440976
H        3.16035866      -2.74847885      -2.13344917
H        3.93918842       2.06040924      -0.03845998
H        1.43204940       3.34691876      -0.68971973
