11
Properties=species:S:1:pos:R:3 atomization_energy=-1151.59 smiles=C.C.O.C.C.N.H.H.H.H.H pbc="F F F"
C        3.43590868      -1.37977949      -1.80884923
C        2.86289896      -0.75238973      -0.77570968
O        3.39462855       0.17179993       0.07708997
C        4.75739801       0.55734979      -0.13194995
C        5.16203792       1.55019935       0.87642966
N        5.50937795       2.33456904       1.65981936
H        2.85962875      -2.09544922      -2.38901910
H        4.46192820      -1.22103953      -2.11604916
H        1.82962934      -0.93967964      -0.49778980
H        4.86695822       0.99546958      -1.13102957
H        5.40686788      -0.32213986      -0.04938998
