13
Properties=species:S:1:pos:R:3 atomization_energy=-1318.65 smiles=N.C.O.C.C.C.H.H.H.H.H.H.H pbc="F F F"
N        1.72502933      -0.79264969       1.00173963
C        2.37747898      -0.21225992      -0.04750998
O        2.28763921      -0.68328970      -1.17701959
C        3.19560883       1.02518960       0.29142989
C        4.64980799       0.76546970       0.02864999
C        5.61669797       0.84583967       0.95190964
H        1.94314926      -0.56842978       1.96214917
H        1.23730947      -1.65839937       0.81085968
H        3.02384871       1.31925947       1.33307953
H        2.84100897       1.84683922      -0.33975988
H        4.91447825       0.49381981      -0.99365961
H        5.40803768       1.11423957       1.98249919
H        6.65056726       0.64387972       0.68696970
