17
Properties=species:S:1:pos:R:3 atomization_energy=-1663.65 smiles=N.C.C.N.C.C.C.H.H.H.H.H.H.H.H.H.H pbc="F F F"
N        0.97979962      -0.05226998       0.31947988
C        2.42124911       0.02702999       0.09803996
C        2.79479879       1.31072954      -0.70233971
N        4.15889829       1.26319954      -1.25914950
C        4.26487818       0.14651995      -2.20705924
C        3.72017852      -1.14512958      -1.66826931
C        2.89281889      -1.21118953      -0.61099976
H        0.65676975       0.80705970       0.75980973
H        0.78120969      -0.80252966       0.97796959
H        2.92171889       0.06662998       1.07363960
H        2.08187922       1.48405941      -1.52004942
H        2.71731897       2.18177919      -0.04024999
H        4.81276806       1.08451962      -0.49776980
H        5.32272802       0.01224000      -2.45857900
H        3.74671846       0.39785984      -3.14004877
H        4.01477854      -2.05698914      -2.17922912
H        2.54679906      -2.17712922      -0.25720989
