22
Properties=species:S:1:pos:R:3 atomization_energy=-2049.73 smiles=C.C.C.C.N.C.C.H.H.H.H.H.H.H.H.H.H.H.H.H.H.H pbc="F F F"
C        4.24461850      -1.01943960      -0.58673975
C        3.21114865      -0.42357984       0.35980986
C        3.45078865       1.07312964       0.67158973
C        2.28482900       1.61037934       1.51384939
N        4.79275819       1.32212949       1.23925949
C        5.15522800       2.73945902       1.20944958
C        5.00032791       0.77643968       2.57885901
H        3.99300840      -2.06117922      -0.80843970
H        5.24799810      -1.00491957      -0.15114994
H        4.26998839      -0.46943981      -1.53331939
H        3.17978867      -1.01508960       1.28204944
H        2.22312921      -0.53483982      -0.10518996
H        3.40578865       1.58788944      -0.29907988
H        2.20335906       1.09534955       2.47683895
H        1.33640942       1.46686947       0.98503960
H        2.38317914       2.68381897       1.70507939
H        5.04158810       3.15184879       0.20045992
H        6.21038749       2.86759889       1.47749943
H        4.55691830       3.34277877       1.90054931
H        4.82496828      -0.30317989       2.60668887
H        4.36424825       1.25302946       3.33209859
H        6.04329777       0.91754963       2.88708895
