20
Properties=species:S:1:pos:R:3 atomization_energy=-1915.82 smiles=C.C.C.N.C.C.C.H.H.H.H.H.H.H.H.H.H.H.H.H pbc="F F F"
C        2.04246924      -0.01290000       0.67159976
C        2.81148899      -0.17517993      -0.64387972
C        2.00335916      -0.97844959      -1.68429928
N        1.71370937      -2.34044912      -1.24193950
C        3.16216863       1.18815951      -1.19882959
C        4.46506821       1.84520928      -0.81759970
C        4.26227815       1.34150941      -2.21889913
H        2.61472891       0.59197979       1.38336940
H        1.84411921      -0.98105963       1.14213958
H        1.08258953       0.49050982       0.50915982
H        3.73854848      -0.72291972      -0.42658984
H        2.56300907      -1.02985962      -2.62576890
H        1.05947952      -0.46633983      -1.90482923
H        2.58783897      -2.83193893      -1.06011956
H        1.25249956      -2.84721885      -1.99617920
H        2.29134899       1.82611929      -1.31114955
H        5.15794814       1.30534946      -0.18253993
H        4.46520800       2.91788876      -0.65738973
H        4.12228831       2.07448920      -3.00594884
H        4.81633804       0.46233981      -2.52700897
