11
Properties=species:S:1:pos:R:3 atomization_energy=-1111.83 smiles=C.C.N.O.C.C.H.H.H.H.H pbc="F F F"
C        0.93241963       0.00272000      -0.00607000
C        2.42475905      -0.03935998      -0.00074000
N        3.19044866      -1.08296955       0.00136000
O        2.42921900      -2.25925901      -0.00141000
C        3.18733867       1.18275949       0.00061000
C        3.81950846       2.20356925       0.00154000
H        0.56956975       1.03414957       0.00215000
H        0.54843978      -0.51417979       0.87794964
H        0.55599981      -0.49752980      -0.90283966
H        3.11746865      -2.95110893       0.00035000
H        4.38956817       3.10392881       0.00228000
