17
Properties=species:S:1:pos:R:3 atomization_energy=-1664.72 smiles=C.C.N.N.C.C.C.H.H.H.H.H.H.H.H.H.H pbc="F F F"
C        1.16191958      -1.14025959       0.26474990
C        2.41513917      -0.76309968      -0.48876981
N        2.49611908      -1.00343959      -1.75710934
N        3.42123864      -0.14849994       0.20371993
C        4.55669826       0.43818982      -0.47042981
C        5.47861776       0.97374960       0.58371979
C        5.80471756       2.26666922       0.72521972
H        1.35089941      -1.16732956       1.34137946
H        0.81631969      -2.12668921      -0.05790998
H        0.38329985      -0.40174984       0.05454998
H        1.64124930      -1.45918940      -2.09161921
H        3.17453867       0.28688988       1.08432961
H        4.22614836       1.23307952      -1.14846957
H        5.08971776      -0.31678987      -1.05929961
H        5.91684751       0.24106990       1.25705957
H        5.40449798       3.03061876       0.06668998
H        6.48929730       2.58630908       1.50342937
