15
Properties=species:S:1:pos:R:3 atomization_energy=-1458.29 smiles=C.C.C.C.C.H.H.H.H.H.H.H.H.H.H pbc="F F F"
C        2.21797913      -0.59364978       1.41748938
C        2.71262889      -0.09849996       0.06739997
C        3.15254875       1.33548942       0.13683995
C        4.40528841       1.74724937      -0.11175996
C        4.84284797       3.17449880      -0.04901998
H        1.89067925      -1.63532935       1.34091946
H        1.36984950       0.00150000       1.77209933
H        3.01019885      -0.54206980       2.17178914
H        1.90609921      -0.18337993      -0.67005972
H        3.52924853      -0.74415970      -0.27669990
H        2.38745918       2.06448918       0.39706985
H        5.17135803       1.02146961      -0.37664985
H        4.02354831       3.84732849       0.22282992
H        5.23309793       3.48739864      -1.02217960
H        5.63833790       3.28766861       0.69370972
