22
Properties=species:S:1:pos:R:3 atomization_energy=-2055.09 smiles=C.C.C.C.C.N.C.H.H.H.H.H.H.H.H.H.H.H.H.H.H.H pbc="F F F"
C        2.81773899      -1.26731948       1.19531953
C        2.14108925       0.08956996       1.32126942
C        2.88134892       1.22132946       0.58020980
C        2.06746921       2.51755891       0.67514975
C        4.33762830       1.44525945       1.04357956
N        4.43937836       1.80144924       2.46035895
C        5.82537794       2.03037917       2.84597889
H        2.19674924      -2.04046914       1.66011938
H        3.79045857      -1.28186953       1.69671928
H        2.96380876      -1.53782944       0.14452995
H        2.02006917       0.33564987       2.38226898
H        1.12764959       0.00203000       0.90981965
H        2.92483897       0.94782963      -0.48272982
H        1.93838928       2.84071880       1.71380930
H        1.07070953       2.38021905       0.24167990
H        2.55871893       3.32709865       0.12436995
H        4.77155833       2.24960910       0.43563982
H        4.92804812       0.54409981       0.83933968
H        4.05631832       1.04875961       3.03080876
H        6.26220775       2.85985888       2.28049899
H        6.43635770       1.13396960       2.69820892
H        5.86885764       2.29629922       3.90643835
