13
Properties=species:S:1:pos:R:3 atomization_energy=-1314.44 smiles=C.N.C.O.C.C.H.H.H.H.H.H.H pbc="F F F"
C        1.15925950      -0.29928989      -0.19707992
N        2.59065902      -0.13918994      -0.19297992
C        3.16313884       1.03020960       0.24216991
O        2.53450901       1.98695927       0.67435976
C        4.64442829       1.02334960       0.12918995
C        5.35725804       2.09663921       0.49206980
H        0.92246964      -1.33525942      -0.45002983
H        0.72788969       0.37484985      -0.94209963
H        0.75774969      -0.05393998       0.79007970
H        3.16118883      -0.87023966      -0.59286976
H        5.13492795       0.13614995      -0.24737990
H        4.87637825       2.99440872       0.87386964
H        6.43922721       2.10096922       0.41552984
