18
Properties=species:S:1:pos:R:3 atomization_energy=-1784.7 smiles=C.N.C.C.C.C.C.H.H.H.H.H.H.H.H.H.H.H pbc="F F F"
C        1.05328959      -0.02280999       0.06318998
N        2.51168893       0.00475000      -0.07162998
C        2.98126882      -1.18454953      -0.82218967
C        3.32597880      -0.69456973      -2.18504915
C        3.28652883       0.63970976      -2.22148906
C        3.59289859       1.52148935      -3.37369868
C        2.92671884       1.17965948      -0.87776967
H        0.70672970       0.85905968       0.61355979
H        0.74075972      -0.89689966       0.64516977
H        0.53877978      -0.04966998      -0.90454965
H        2.23339910      -1.98439924      -0.86553968
H        3.87776847      -1.58917935      -0.33932987
H        3.58848860      -1.34134944      -3.00865887
H        3.73569865       2.55689887      -3.04731879
H        2.77064893       1.50660937      -4.09632846
H        4.51146839       1.20436952      -3.87767839
H        3.80928854       1.63630941      -0.41479985
H        2.14538923       1.94528928      -0.94344960
