13
Properties=species:S:1:pos:R:3 atomization_energy=-1482.1 smiles=C.C.C.C.C.C.C.H.H.H.H.H.H pbc="F F F"
C        0.99999962       0.00000000       0.00000000
C        2.19015911       0.00000000       0.00000000
C        3.63415853       0.00000000       0.00000000
C        4.18456845       1.16361953      -0.77950967
C        4.93321788       0.71992971      -1.80417934
C        4.93192796      -0.72209970      -1.80236924
C        4.18463835      -1.16416949      -0.77935972
H       -0.06544997       0.00000000      -0.00629000
H        4.03812851       0.00014000       1.01798958
H        4.00706830       2.20044918      -0.53640976
H        5.45381764       1.32789942      -2.52749900
H        5.45218808      -1.33111942      -2.52565900
H        4.00618842      -2.20050923      -0.53505979
