19
Properties=species:S:1:pos:R:3 atomization_energy=-1769.87 smiles=C.N.C.C.N.C.C.H.H.H.H.H.H.H.H.H.H.H.H pbc="F F F"
C        1.22300948       0.24376991       0.54923979
N        2.56927900       0.28383989      -0.00763000
C        3.19129876       1.59671939       0.23072990
C        4.60286833       1.65825933      -0.38445985
N        5.18274776       2.99495880      -0.18352992
C        6.21062771       3.04136882       0.85361967
C        6.57845755       3.07424885      -0.60609974
H        0.78520970      -0.74346970       0.36971986
H        0.57241976       0.98955960       0.07947997
H        1.23484949       0.40766985       1.63042933
H        2.51714913       0.11876996      -1.01311958
H        3.25949860       1.78021935       1.30960944
H        2.56967894       2.38611905      -0.20943991
H        4.52873845       1.47109943      -1.46386938
H        5.22144780       0.85314964       0.03582999
H        6.42670754       2.14571903       1.42271945
H        6.27391744       3.96639856       1.41323949
H        6.88544729       4.02163841      -1.03331958
H        7.03730730       2.19755922      -1.04704956
