13
Properties=species:S:1:pos:R:3 atomization_energy=-1264.37 smiles=O.N.C.C.C.C.H.H.H.H.H.H.H pbc="F F F"
O        0.78134967       0.77974970      -0.96292964
N        2.16659919       0.67255976      -1.12724952
C        2.75284898       1.24779951      -0.12674995
C        4.25503827       1.27851946      -0.02136999
C        4.71773809       2.70056897      -0.13617994
C        5.39405802       3.35162878       0.81886968
H        0.44034984       0.30978989      -1.74696928
H        2.17983926       1.72574935       0.68811970
H        4.69914834       0.67828976      -0.82197967
H        4.53470810       0.83790966       0.94118966
H        4.48902807       3.21669868      -1.06785957
H        5.65704775       2.87867875       1.76021932
H        5.70948774       4.38047819       0.67221974
