22
Properties=species:S:1:pos:R:3 atomization_energy=-2050.7 smiles=C.C.C.N.C.C.C.H.H.H.H.H.H.H.H.H.H.H.H.H.H.H pbc="F F F"
C        1.05647956      -0.22021991      -0.28030990
C        2.57863897      -0.17172993      -0.25158991
C        3.08885883       1.26836956      -0.38952985
N        4.55653829       1.40353950      -0.26706990
C        5.25154789       0.70916974      -1.35477951
C        4.90505822       2.83826891      -0.23489991
C        6.37536772       3.11368873       0.06510998
H        0.70882973      -1.25432947      -0.19541993
H        0.67043973       0.19163993      -1.21841958
H        0.62900978       0.35192987       0.54880976
H        2.95038877      -0.79861966      -1.06870955
H        2.93524890      -0.60874979       0.68854974
H        2.61688886       1.85618923       0.40899986
H        2.74408904       1.69212937      -1.34207943
H        5.04722821      -0.36563985      -1.33561950
H        6.33789754       0.78773970      -1.24932952
H        4.96968782       1.09990955      -2.33878903
H        4.32729837       3.32499875       0.56137976
H        4.62820793       3.32944861      -1.17640957
H        6.70277712       2.58516905       0.96638960
H        6.52539733       4.18567846       0.23193991
H        7.02414722       2.82283885      -0.76666973
