15
Properties=species:S:1:pos:R:3 atomization_energy=-1472.1 smiles=C.C.N.N.C.C.C.H.H.H.H.H.H.H.H pbc="F F F"
C        1.17267949      -0.08318996       0.71978974
C        2.51999896       0.00000000       0.00000000
N        2.39624915      -0.48091981      -1.38642942
N        2.08559921      -1.79480927      -1.54732933
C        1.89062929      -2.12304909      -2.78109897
C        3.00201878       1.36116943       0.00000000
C        3.39929870       2.48306901       0.00000000
H        1.25564954       0.29442989       1.74576932
H        0.81374969      -1.11646955       0.77865969
H        0.40528983       0.51366979       0.21226992
H        3.24146878      -0.63479977       0.52932978
H        3.26811874      -0.25094990      -1.87014933
H        1.63059940      -3.16362887      -3.03088875
H        1.96225919      -1.41272941      -3.62329845
H        3.75007851       3.48928860       0.00024000
