14
Properties=species:S:1:pos:R:3 atomization_energy=-1460.11 smiles=C.C.C.C.C.C.H.H.H.H.H.H.H.H pbc="F F F"
C        0.99999962       0.00000000       0.00000000
C        2.44399905       0.00000000       0.00000000
C        3.63415853       0.00000000       0.00000000
C        5.04015789       0.00000000       0.00000000
C        5.78664761      -1.30328943      -0.00492000
C        5.69716792       1.17023957       0.00841999
H        0.60598979       1.02086963       0.01167999
H        0.60596979      -0.52054980       0.87824966
H        0.60596979      -0.50030980      -0.88992963
H        5.10275774      -2.15771915       0.02695999
H        6.44444744      -1.37438944       0.86717964
H        6.39154771      -1.39619944      -0.91243967
H        5.16951803       2.11942914       0.01328999
H        6.78180727       1.20715955       0.00979000
