15
Properties=species:S:1:pos:R:3 atomization_energy=-1516.56 smiles=C.C.C.C.C.N.N.H.H.H.H.H.H.H.H pbc="F F F"
C        1.00094958      -0.05364998       0.00304000
C        2.51999896       0.00000000       0.00000000
C        3.00201878       1.36116943       0.00000000
C        3.39929870       2.48306901       0.00000000
C        4.03459840       3.77063846       0.04759998
N        5.37704787       3.82692851       0.17480994
N        3.24984870       4.77656811      -0.05181998
H        0.65713973      -1.09290963       0.00180000
H        0.58512975       0.44312984      -0.88047964
H        0.58887978       0.43974982       0.89020966
H        2.89551884      -0.53272976      -0.88087965
H        2.89915897      -0.53415978       0.87843967
H        5.89871751       3.03262883      -0.17244993
H        5.76262769       4.72792823      -0.07926997
H        2.27540922       4.46805833      -0.13170994
