14
Properties=species:S:1:pos:R:3 atomization_energy=-1426.08 smiles=C.C.C.N.C.N.N.H.H.H.H.H.H.H pbc="F F F"
C        0.98281958      -0.12120996      -0.08077996
C        2.48199913       0.00000000       0.00000000
C        3.18499881      -1.21762952       0.00000000
N        3.76050862      -2.21443918       0.00000000
C        3.15303878       1.17962957       0.03116999
N        2.53573913       2.40325916       0.03469999
N        4.51982812       1.27957950       0.06859997
H        0.46376981       0.83526970      -0.18728993
H        0.59313976      -0.60998974       0.82009967
H        0.69810975      -0.72979972      -0.94816964
H        1.59786939       2.39625898       0.42434983
H        3.11307885       3.08299869       0.52333979
H        5.02146821       0.43100982      -0.18780993
H        4.84036805       2.06614914      -0.49098982
