21
Properties=species:S:1:pos:R:3 atomization_energy=-1920.21 smiles=C.C.N.C.C.C.N.H.H.H.H.H.H.H.H.H.H.H.H.H.H pbc="F F F"
C        0.70934972      -0.40837985       0.34533986
C        1.96404923      -0.18180992       1.18626954
N        2.74414885       1.00399957       0.78477967
C        1.95643917       2.23531908       0.92289962
C        3.97929849       1.13257951       1.59329942
C        5.02389816       0.02480999       1.33702953
N        6.27258765       0.28424990       2.06072920
H        0.27237989      -1.38302951       0.58761976
H        0.94257962      -0.40226984      -0.72353969
H       -0.05557998       0.34772985       0.54291978
H        2.57717898      -1.08046957       1.06116964
H        1.68390930      -0.12675995       2.24543908
H        1.10536962       2.24165916       0.23534990
H        2.55718905       3.11170869       0.65423975
H        1.58529938       2.37418909       1.94435919
H        3.73647861       1.17419953       2.66320905
H        4.45967841       2.08761912       1.34083947
H        5.24101811      -0.04525998       0.26558991
H        4.64510807      -0.94787965       1.66691933
H        6.68583761       1.14907958       1.71290936
H        6.94040705      -0.45421982       1.83912924
