17
Properties=species:S:1:pos:R:3 atomization_energy=-1629.46 smiles=C.C.C.N.N.C.C.H.H.H.H.H.H.H.H.H.H pbc="F F F"
C        1.15348957       0.32702986      -0.66752972
C        2.49174896      -0.11897995      -0.13461994
C        2.72646900      -1.60841936      -0.01992999
N        3.35417859       0.79921970       0.19085992
N        4.52665823       0.33131987       0.65935974
C        5.55775793       1.28403945       0.24582991
C        5.01013804       1.30614948       1.63809932
H        1.09494960       1.41796944      -0.70578970
H        0.36150985      -0.05117998      -0.01575999
H        1.01437960      -0.07437997      -1.67478929
H        1.84482927      -2.15822911      -0.36089987
H        2.91973885      -1.87463931       1.02297962
H        3.57839862      -1.89927920      -0.64079977
H        5.27977771       2.07730912      -0.43717983
H        6.54197751       0.86302967       0.08939996
H        5.61964772       0.90033963       2.43442914
H        4.35004805       2.11483911       1.92658927
