20
Properties=species:S:1:pos:R:3 atomization_energy=-1919.97 smiles=C.C.C.N.C.C.C.H.H.H.H.H.H.H.H.H.H.H.H.H pbc="F F F"
C        0.89635967      -0.17310994      -0.07719997
C        2.42834896      -0.18434992       0.04290998
C        2.84885900      -1.00897958       1.26870945
N        2.98221885      -0.85465965      -1.14954954
C        3.00455874       1.25885945       0.09862996
C        2.53141896       2.10230922       1.25520947
C        1.82441933       3.23204874       1.12186956
H        0.56824980       0.41602983      -0.94120965
H        0.42709983       0.25298990       0.81608969
H        0.49829979      -1.18782958      -0.19650992
H        2.41603898      -0.60843973       2.19145911
H        3.93860856      -1.02024958       1.38702946
H        2.51366897      -2.04977915       1.18413949
H        2.67490890      -0.36652986      -1.99075925
H        2.60447895      -1.79934934      -1.22004951
H        2.77506902       1.77457924      -0.84452969
H        4.10083838       1.21146949       0.15446994
H        2.81116878       1.77409930       2.25375920
H        1.53332936       3.61307853       0.14782994
H        1.52457940       3.80549852       1.99384917
