15
Properties=species:S:1:pos:R:3 atomization_energy=-1417.04 smiles=O.C.C.C.C.N.H.H.H.H.H.H.H.H.H pbc="F F F"
O        1.95374919      -1.30509952      -0.20497992
C        2.08461916       0.08448997      -0.48620981
C        2.91749891       0.75755969       0.60035977
C        4.35644818       0.33522987       0.53740981
C        5.38776791       1.18806955      -0.15698994
N        5.34261778       1.10374953       1.29895955
H        1.35252947      -1.67647928      -0.87345966
H        1.08052963       0.51995978      -0.50830980
H        2.54506908       0.19950992      -1.47251942
H        2.52038906       0.48835980       1.58630934
H        2.83281881       1.84563926       0.49170981
H        4.48221815      -0.74151968       0.54831979
H        5.08956788       2.13982911      -0.57888979
H        6.22323771       0.70188974      -0.64481972
H        6.07289774       0.48488981       1.65733933
