19
Properties=species:S:1:pos:R:3 atomization_energy=-1924.09 smiles=C.C.C.C.C.C.C.H.H.H.H.H.H.H.H.H.H.H.H pbc="F F F"
C        0.96778960       0.04528998       0.00104000
C        2.48977901      -0.00440000       0.02968999
C        3.08189878       1.11772956       0.88469963
C        4.49604843       0.63577976       1.17705958
C        4.33700808      -0.85707964       1.44255937
C        3.10997871      -1.23667953       0.65250977
C        2.64326908      -2.48972904       0.57729979
H        0.55989978      -0.72585969      -0.66086976
H        0.62245977       1.01605962      -0.37013986
H        0.54078979      -0.10569996       0.99866958
H        2.87281886       0.09233996      -0.99491963
H        2.52497896       1.24133945       1.82227931
H        3.07992883       2.07892922       0.36127985
H        5.13914794       0.79929969       0.30259987
H        4.94533786       1.15975950       2.02640924
H        5.22488809      -1.40889939       1.12229954
H        4.16546824      -1.03528960       2.50944898
H        1.74849929      -2.73532886       0.01443000
H        3.15064870      -3.30797875       1.07957960
