17
Properties=species:S:1:pos:R:3 atomization_energy=-1646.07 smiles=C.C.C.N.N.C.C.H.H.H.H.H.H.H.H.H.H pbc="F F F"
C        2.04875923      -0.87729963      -0.57531974
C        2.20270905       0.41407985       0.20797992
C        3.43920867       1.16975951      -0.25739990
N        3.34094861       1.97920917      -1.26854947
N        4.60448829       0.89864964       0.44776983
C        5.86023750       0.89037967      -0.31850986
C        5.55464769       2.00922927       0.61725979
H        1.16472954      -1.42522939      -0.23628991
H        2.92358892      -1.52205936      -0.44588983
H        1.93892927      -0.67688976      -1.64602933
H        2.29415920       0.19544993       1.27728947
H        1.31833948       1.04621958       0.07270997
H        2.37816911       1.99400928      -1.62017938
H        5.75862774       1.05125958      -1.38331944
H        6.53992757       0.11381996      -0.00019000
H        6.02021754       2.01653918       1.59144933
H        5.23634796       2.96068894       0.21479991
