15
Properties=species:S:1:pos:R:3 atomization_energy=-1546.78 smiles=C.C.N.C.C.C.N.H.H.H.H.H.H.H.H pbc="F F F"
C        0.95345965      -0.14700994      -0.04462998
C        2.46570913      -0.04067998      -0.05124998
N        3.08826888      -1.28050947      -0.12805995
C        3.13901875       1.13798949       0.00000000
C        2.51324909       2.50810911       0.06329998
C        4.54501836       1.13798949       0.00000000
N        5.69602789       1.13798949       0.00000000
H        0.42543983       0.80551966      -0.01768999
H        0.62618973      -0.72026973       0.83033965
H        0.61466973      -0.67557972      -0.94314964
H        2.55203897      -2.05746920       0.25230991
H        4.07125834      -1.31269949       0.13935995
H        1.42353940       2.51439897       0.05066998
H        2.84316893       3.11062871      -0.79123966
H        2.82503893       3.02170869       0.98018960
