17
Properties=species:S:1:pos:R:3 atomization_energy=-1671.32 smiles=C.C.C.N.C.C.N.H.H.H.H.H.H.H.H.H.H pbc="F F F"
C        1.07982954      -0.06478997       0.88756964
C        2.45151903       0.35100987       0.46478982
C        2.80163899       1.61971939       0.21628992
N        4.04579837       2.05567916      -0.16230994
C        4.50521815       3.32200862      -0.43885982
C        5.98043751       3.45428874      -0.74828973
N        3.80004842       4.40251832      -0.48186981
H        0.66206972      -0.76687967       0.15993993
H        0.39608983       0.78607968       0.97291962
H        1.12594951      -0.56358975       1.86045930
H        3.18249870      -0.44674981       0.36443986
H        2.06284915       2.40936911       0.32185987
H        4.73703790       1.31394954      -0.22227992
H        6.56488717       2.88120888      -0.02294999
H        6.29186727       4.50172840      -0.70736974
H        6.17140736       3.06252882      -1.75120933
H        2.82413887       4.18859843      -0.27706988
