12
Properties=species:S:1:pos:R:3 atomization_energy=-1281.77 smiles=N.C.C.C.N.C.N.H.H.H.H.H pbc="F F F"
N        0.99999962       0.00000000       0.00000000
C        2.15100915       0.00000000       0.00000000
C        3.59500859       0.00000000       0.00000000
C        4.16847830      -1.20028957      -0.78335967
N        4.62854807      -0.67353975      -2.10811915
C        4.57534807       0.61323977      -1.95516919
N        4.15774841       1.11265960      -0.76161970
H        3.97988844       0.00866000       1.02483962
H        3.44184856      -2.00647923      -0.93304964
H        5.04171780      -1.61565938      -0.26606990
H        4.82322820       1.34932941      -2.73619890
H        3.62954869       1.97906925      -0.78177970
