18
Properties=species:S:1:pos:R:3 atomization_energy=-1785.36 smiles=N.C.C.C.C.C.C.H.H.H.H.H.H.H.H.H.H.H pbc="F F F"
N        1.09092959      -0.02401999      -0.01493999
C        2.55101905      -0.01605999       0.03143999
C        3.15335874       1.02210958      -0.96259965
C        2.74772892       0.03268999      -2.10050921
C        3.16495866      -1.00194957      -1.00805958
C        4.67011813      -0.75353973      -0.85993969
C        4.66149799       0.78418972      -0.82680967
H        0.66443974       0.76540971       0.46861980
H        0.67510976      -0.86123964       0.39120984
H        2.96050877      -0.03769999       1.04587956
H        2.77639880       2.04348917      -0.98267960
H        3.35404864       0.05636998      -3.01277893
H        1.69591939       0.03367998      -2.40649909
H        2.79924891      -2.02558917      -1.07340960
H        5.07175784      -1.18057948       0.06434998
H        5.24007792      -1.14134953      -1.70995935
H        5.22585805       1.21452951      -1.66014929
H        5.06001787       1.17573951       0.11448995
