12
Properties=species:S:1:pos:R:3 atomization_energy=-1275.91 smiles=C.C.C.C.C.S.H.H.H.H.H.H pbc="F F F"
C        0.88018965       0.08710996      -0.00811000
C        2.36892899       0.06052997      -0.00021000
C        3.24819870       1.12394953       0.00371000
C        4.60897827       0.70063975       0.01090999
C        4.72142818      -0.67147972       0.01220000
S        3.19458865      -1.44075937       0.00459000
H        0.50718980       1.11664958      -0.00027000
H        0.47673982      -0.42126984       0.87441965
H        0.48712981      -0.40425984      -0.90481964
H        2.93225877       2.16018922       0.00149000
H        5.46140776       1.36877948       0.01491999
H        5.62698753      -1.26234956       0.01718000
