15
Properties=species:S:1:pos:R:3 atomization_energy=-1453.58 smiles=C.C.C.C.C.H.H.H.H.H.H.H.H.H.H pbc="F F F"
C        3.18010862      -1.13548952      -0.41689984
C        2.44366900       0.06855997       0.14751995
C        3.32225868       1.28234946       0.17588993
C        3.45361855       2.16057907      -1.04145960
C        2.70681896       2.65776905       0.16532993
H        2.52858907      -2.01425924      -0.41830984
H        4.06809840      -1.36812947       0.18029992
H        3.50748850      -0.94908964      -1.44479945
H        2.11391911      -0.15375994       1.16779953
H        1.54317936       0.25221990      -0.44924981
H        4.20168837       1.13876957       0.79544969
H        2.87921874       1.91249921      -1.92696928
H        4.42578830       2.59286894      -1.25179947
H        3.17365879       3.42691862       0.77008970
H        1.62865936       2.74578900       0.09346996
