18
Properties=species:S:1:pos:R:3 atomization_energy=-1785.38 smiles=C.C.N.C.C.C.C.H.H.H.H.H.H.H.H.H.H.H pbc="F F F"
C        3.10952879      -1.05619959      -0.79634969
C        2.61643895       0.11505996       0.04511998
N        3.40177860       1.32390943      -0.18404993
C        3.28073858       1.87518926      -1.54512938
C        3.33783862       3.35063863      -1.34893943
C        3.21365884       3.65139857      -0.05455998
C        3.05995883       2.40934917       0.75222969
H        2.54846899      -1.96153929      -0.54206980
H        4.17045834      -1.25606955      -0.61110978
H        2.97533878      -0.87234966      -1.86717926
H        2.70406905      -0.17505993       1.09934963
H        1.55168937       0.28856988      -0.15356994
H        2.33246914       1.61433930      -2.02994920
H        4.11217840       1.52899936      -2.16655907
H        3.43946857       4.06423849      -2.15225920
H        3.19827875       4.64813806       0.35963985
H        3.74969850       2.40133917       1.60159935
H        2.03013920       2.34512910       1.12345950
