18
Properties=species:S:1:pos:R:3 atomization_energy=-1802.15 smiles=C.C.C.C.C.C.N.H.H.H.H.H.H.H.H.H.H.H pbc="F F F"
C        1.12609951      -0.26833991       0.23383990
C        2.62526903      -0.18437993      -0.00951000
C        3.15765871       1.22640952       0.26553988
C        4.66402838       1.36397951      -0.01697999
C        5.08598780       2.83126899       0.06460997
C        5.46248774       0.56716976       0.93573962
N        6.09075775      -0.05909998       1.68237929
H        0.76555972      -1.28167953       0.03114999
H        0.58282975       0.42228983      -0.41894984
H        0.88344965      -0.02283999       1.27268947
H        2.83629896      -0.46475983      -1.04801959
H        3.12775872      -0.91532962       0.63352973
H        2.94230887       1.49997937       1.30695946
H        2.60862904       1.93518922      -0.36792985
H        4.86907830       1.00811958      -1.03440959
H        4.90230831       3.24675865       1.06223952
H        4.53367808       3.43677872      -0.66179972
H        6.15493770       2.94441887      -0.14922994
