19
Properties=species:S:1:pos:R:3 atomization_energy=-1796.21 smiles=C.N.C.C.C.N.C.H.H.H.H.H.H.H.H.H.H.H.H pbc="F F F"
C        2.15543908      -0.24348990      -1.58364939
N        2.36263913       0.12337996      -0.18935993
C        3.06851891       1.39723942      -0.04785998
C        2.27434918       2.61853885      -0.48461981
C        3.00999875       3.76091840       0.19953991
N        3.62617856       3.21214864       1.41795947
C        3.37244863       1.76237928       1.40996940
H        1.66350933      -1.22016949      -1.63120941
H        3.10410872      -0.32011986      -2.12483912
H        1.50464939       0.47070983      -2.09687918
H        2.89791876      -0.61166977       0.27246988
H        4.01898843       1.35805944      -0.59919974
H        1.24113948       2.56589902      -0.11746995
H        2.24764900       2.74171890      -1.57155944
H        3.79634849       4.14726834      -0.45948982
H        2.33585896       4.58867822       0.43924983
H        4.63117837       3.38183863       1.38619942
H        4.22828838       1.20408956       1.80334929
H        2.51136897       1.55591944       2.05758918
