11
Properties=species:S:1:pos:R:3 atomization_energy=-1159.98 smiles=O.C.C.C.C.N.H.H.H.H.H pbc="F F F"
O        2.42368916      -0.50014979       1.35668941
C        2.34240898       0.02278999       0.03923999
C        2.87828890       1.42356943       0.03397999
C        2.07602917       2.49898909      -0.06769997
C        4.29380846       1.60097937       0.08863996
N        5.44436783       1.75448925       0.09992996
H        2.13064905      -1.42637939       1.31581944
H        1.29422947      -0.01092000      -0.27802990
H        2.91961874      -0.61781977      -0.63650976
H        0.99602963       2.39765917      -0.11889995
H        2.47636911       3.50946854      -0.08429997
