15
Properties=species:S:1:pos:R:3 atomization_energy=-1409.64 smiles=C.O.C.C.C.N.H.H.H.H.H.H.H.H.H pbc="F F F"
C        2.43669911      -0.92532963      -0.73460972
O        2.04572923       0.32171986      -0.17681993
C        3.16232886       1.20526959       0.04809998
C        3.46095861       2.18622905      -1.05010958
C        2.80228900       2.66167892       0.21019992
N        3.54994853       3.51956860       1.13195953
H        1.54040940      -1.53156935      -0.89049965
H        3.10490886      -1.45408940      -0.04820998
H        2.93147882      -0.77329967      -1.69863939
H        3.99468843       0.83093970       0.63559973
H        2.85425889       2.15043914      -1.94737922
H        4.49550844       2.45156899      -1.22816953
H        1.74571936       2.91160874       0.13269995
H        4.51955813       3.22074885       1.22225955
H        3.14951876       3.46001868       2.06836915
