17
Properties=species:S:1:pos:R:3 atomization_energy=-1615.47 smiles=C.N.C.C.C.N.C.H.H.H.H.H.H.H.H.H.H pbc="F F F"
C        1.24169953       0.06805997       0.48328980
N        2.48561907      -0.10477996      -0.27862988
C        2.57949892      -1.49266946      -0.78621966
C        1.53826938      -1.85814921      -1.80951930
C        0.71548970      -2.91190876      -1.71731935
N        2.73681888       0.89155963      -1.17525958
C        3.97635832       1.25477950      -1.17749952
H        1.26071950       1.02960962       1.00854961
H        1.13196950      -0.70800971       1.24863952
H        0.35722987       0.05948998      -0.16307994
H        2.55778909      -2.18948917       0.06130998
H        3.56633871      -1.62722939      -1.24724956
H        1.46907939      -1.20162958      -2.67429902
H        0.74829970      -3.59017871      -0.87050965
H       -0.01637999      -3.11149875      -2.49412894
H        4.30764833       2.05322915      -1.85939926
H        4.74525835       0.81067971      -0.52063978
