14
Properties=species:S:1:pos:R:3 atomization_energy=-1492.4 smiles=C.C.C.C.C.C.N.H.H.H.H.H.H.H pbc="F F F"
C        1.00208962      -0.05412998       0.00306000
C        2.51999896       0.00000000       0.00000000
C        3.00201878       1.36116943       0.00000000
C        3.39929870       2.48306901       0.00000000
C        3.88131852       3.84423844       0.00000000
C        3.29839874       5.16535810       0.00000000
N        2.83374890       6.21840759       0.00000000
H        0.65739976      -1.09392955       0.00268000
H        0.58475977       0.44180982      -0.88123966
H        0.58841977       0.43995983       0.89009964
H        2.89560892      -0.53277979      -0.88081966
H        2.89920893      -0.53408976       0.87846963
H        4.57160801       3.87103854      -0.85951968
H        4.57160801       3.87103854       0.85951968
