20
Properties=species:S:1:pos:R:3 atomization_energy=-1913.35 smiles=C.C.C.N.C.C.C.H.H.H.H.H.H.H.H.H.H.H.H.H pbc="F F F"
C        0.83247968       0.00896999      -0.08120997
C        2.34377913      -0.22626991      -0.13334994
C        2.66094892      -1.32589945      -1.14794951
N        3.00032891       1.04305957      -0.47752981
C        4.46430819       0.99297964      -0.40376985
C        5.25389810       0.89637966      -1.67869929
C        5.24441802       2.17890917      -0.90160967
H        0.57659976       0.76848967       0.66576971
H        0.30687988      -0.91226966       0.19214992
H        0.44436982       0.34238986      -1.05041957
H        2.67028897      -0.55082980       0.86267969
H        2.39061913      -1.02308957      -2.16558911
H        2.10526919      -2.23993901      -0.91158963
H        3.72510856      -1.58339933      -1.14012952
H        2.65087889       1.77563928       0.14121995
H        4.87416833       0.49818981       0.47491982
H        4.71146816       0.86883966      -2.61678893
H        6.15676760       0.29857989      -1.66953929
H        6.14538747       2.45389902      -0.36649986
H        4.70195830       3.01791893      -1.32135950
