14
Properties=species:S:1:pos:R:3 atomization_energy=-1450.41 smiles=C.N.C.C.C.C.C.H.H.H.H.H.H.H pbc="F F F"
C        1.00847959      -0.01820999      -0.00192000
N        2.46316891       0.01273999       0.03144999
C        2.96069877       1.38567949       0.00000000
C        4.40469846       1.38567949       0.00000000
C        5.59485769       1.38567949       0.00000000
C        7.12750714       1.38592943      -0.00082000
C        8.32581667       1.38581941      -0.00106000
H        0.66524972      -1.05695956       0.02890999
H        0.61690974       0.43809983      -0.91694965
H        0.58101978       0.49503980       0.86555967
H        2.83163891      -0.48911983      -0.77562969
H        2.59354898       1.93537922       0.87441965
H        2.59236907       1.90243927      -0.89415965
H        9.39152613       1.38439942       0.00027000
