12
Properties=species:S:1:pos:R:3 atomization_energy=-1260.42 smiles=C.N.C.C.N.C.N.H.H.H.H.H pbc="F F F"
C        0.97801961      -0.09769996      -0.15933994
N        2.41535895      -0.00947000       0.07403997
C        2.89945873       1.40003941       0.07991997
C        2.39982897       2.18233911       1.23558946
N        1.97852926       2.81282887       2.11642917
C        4.38055843       1.44526942       0.03204999
N        5.54077805       1.46974946      -0.05494998
H        0.68366971      -1.15138955      -0.19606992
H        0.69680974       0.36059985      -1.11300958
H        0.40513985       0.36899986       0.64769977
H        2.90004894      -0.51717978      -0.66765974
H        2.54204892       1.88307929      -0.83965970
