19
Properties=species:S:1:pos:R:3 atomization_energy=-1929.37 smiles=C.C.C.C.C.C.C.H.H.H.H.H.H.H.H.H.H.H.H pbc="F F F"
C        0.98021962       0.10521996       0.01667000
C        2.46557892       0.00940000      -0.02520999
C        3.22730870      -1.09137962      -0.10906996
C        2.77379903      -2.50767913      -0.17782993
C        4.68649797      -0.75363972      -0.08304997
C        4.69107828       0.75434972      -0.32258987
C        3.30086882       1.24982952       0.06827997
H        0.50159981      -0.87681964      -0.04524998
H        0.61577974       0.70787970      -0.82119965
H        0.65673972       0.57736975       0.94961960
H        3.62751869      -3.19063866      -0.23553991
H        2.15632905      -2.67354883      -1.06610953
H        2.19671921      -2.77335897       0.71337970
H        5.11851785      -1.00440961       0.89136963
H        5.24744801      -1.27217951      -0.86651966
H        4.86969803       0.95836963      -1.38700940
H        5.48347766       1.25993955       0.23913990
H        2.96061878       2.03264914      -0.61638975
H        3.28970871       1.64071940       1.09113953
