19
Properties=species:S:1:pos:R:3 atomization_energy=-1914.48 smiles=C.C.C.C.C.C.C.H.H.H.H.H.H.H.H.H.H.H.H pbc="F F F"
C        1.04021959      -0.07529997      -0.05415998
C        2.53173892       0.08043997      -0.00914999
C        3.44143852      -0.59539976      -1.08966957
C        4.51804818      -0.31794987       0.00663000
C        3.39379863      -0.75224969       0.99870958
C        4.57481817       1.20270956       0.12328995
C        3.07293874       1.50962940       0.11044996
H        0.57394978       0.33085987       0.84976967
H        0.75339969      -1.12954952      -0.13089995
H        0.61514973       0.44842983      -0.91693962
H        3.55918865      -0.06283998      -2.03836924
H        3.23638884      -1.65140929      -1.30320944
H        5.44589797      -0.88687964      -0.01496999
H        3.18283885      -1.82773925       1.04245959
H        3.46616875      -0.36799984       2.02082919
H        5.05034803       1.52884935       1.05364960
H        5.09338817       1.66413940      -0.72295971
H        2.79429893       2.13448928      -0.74434970
H        2.75198903       2.00206924       1.03421959
