20
Properties=species:S:1:pos:R:3 atomization_energy=-1902.25 smiles=C.N.C.C.C.C.C.H.H.H.H.H.H.H.H.H.H.H.H.H pbc="F F F"
C        2.83509887      -0.75036969      -1.51698940
N        2.13112924       0.31781986      -0.80930967
C        1.21399949       1.01628963      -1.70175934
C        3.03157888       1.16506956       0.02370999
C        3.29879869       0.58802980       1.39968943
C        4.16740841       1.91531927      -0.64429973
C        3.01750889       2.67928886      -0.06526997
H        3.45456858      -1.33671953      -0.82938969
H        3.48066871      -0.36273987      -2.31284912
H        2.12209906      -1.45210948      -1.96533927
H        1.74089933       1.56338933      -2.49172902
H        0.58658974       1.71920931      -1.14258949
H        0.52529980       0.31001989      -2.18044915
H        3.91547836       1.25594956       2.01161922
H        3.82561841      -0.36798984       1.32324946
H        2.35630914       0.42303982       1.93115924
H        4.25507814       1.88989929      -1.72414932
H        5.12264800       1.96675927      -0.13328995
H        3.19411881       3.25170863       0.83977968
H        2.35914914       3.18957887      -0.75600968
