17
Properties=species:S:1:pos:R:3 atomization_energy=-1646.61 smiles=C.N.C.N.C.C.C.H.H.H.H.H.H.H.H.H.H pbc="F F F"
C        1.16050955       0.76106968       0.76005972
N        2.43964911       1.46155942       0.69546973
C        3.21235883       1.02287957      -0.23670990
N        4.46312829       1.48785940      -0.55340976
C        5.25105787       2.06265915       0.50048981
C        6.46929753       1.38940945      -0.13356994
C        5.46620760       0.52233980      -0.89570966
H        0.53072979       1.01757961      -0.09807996
H        0.63107978       1.06649963       1.66778937
H        1.29279951      -0.32562986       0.80549966
H        2.89650898       0.20626992      -0.91363963
H        5.00726802       1.68854930       1.50061941
H        5.24893778       3.15497870       0.48712981
H        7.06637737       2.05069915      -0.77102970
H        7.12827726       0.85582965       0.55609980
H        5.62852777       0.43959981      -1.97277926
H        5.29563773      -0.46599981      -0.45504984
