15
Properties=species:S:1:pos:R:3 atomization_energy=-1490.72 smiles=C.C.C.C.C.N.N.H.H.H.H.H.H.H.H pbc="F F F"
C        0.99999962       0.00000000       0.00000000
C        2.44399905       0.00000000       0.00000000
C        3.63415853       0.00000000       0.00000000
C        5.07347823      -0.06764997      -0.03806998
C        5.74835786      -1.40263943      -0.06793997
N        5.61346763       1.11183952      -0.05030998
N        6.96857731       1.13566956      -0.09071996
H        0.60594973       1.02084963       0.01166999
H        0.60596979      -0.52055979       0.87824966
H        0.60597976      -0.50032979      -0.88992963
H        5.01319781      -2.21236905      -0.07022997
H        6.38702744      -1.51152946       0.81308966
H        6.36325734      -1.48515945      -0.96859964
H        7.27947718       2.09895914      -0.24249991
H        7.36437706       0.87386964       0.81557966
