20
Properties=species:S:1:pos:R:3 atomization_energy=-1919.28 smiles=C.C.N.C.C.C.C.H.H.H.H.H.H.H.H.H.H.H.H.H pbc="F F F"
C        1.03209957      -0.28634989      -0.03047999
C        2.55987890      -0.23622990      -0.01176000
N        3.08751870      -1.03469959      -1.11881951
C        3.05324884       1.21716953      -0.09445996
C        4.57916836       1.33629953      -0.00315000
C        5.01539814       2.77525902      -0.03610999
C        5.70262786       3.37507868       0.94394966
H        0.61638975       0.27389990       0.81387971
H        0.67090976      -1.31791947       0.04694998
H        0.62670978       0.14525994      -0.95275961
H        2.91099885      -0.67838975       0.92808963
H        2.74590886      -0.66460975      -2.00537920
H        2.72939883      -1.98720920      -1.05588961
H        2.60097887       1.79186935       0.72505974
H        2.70303904       1.67928937      -1.02720957
H        5.05320795       0.82071965      -0.84659969
H        4.93315783       0.84649964       0.91226966
H        4.76085797       3.34491878      -0.92775964
H        5.98918786       2.84530895       1.84671923
H        5.99849787       4.41577832       0.85689967
