19
Properties=species:S:1:pos:R:3 atomization_energy=-1777.44 smiles=C.N.C.C.C.C.N.H.H.H.H.H.H.H.H.H.H.H.H pbc="F F F"
C        2.40011915      -0.39113985      -1.09620962
N        2.40518899       0.29152987       0.18760993
C        3.21952882       1.51656940       0.18450993
C        4.71921827       1.23752951       0.05263998
C        5.67724788       2.33911908       0.55973980
C        6.50486766       1.16678957       1.11301955
N        5.25939792       0.36636984       1.14068956
H        1.70434927      -1.23444955      -1.05319957
H        3.38540861      -0.79078969      -1.35261943
H        2.06200914       0.27180990      -1.89842922
H        2.77806898      -0.32551988       0.91189961
H        3.01795879       2.03744924       1.12838955
H        2.88793880       2.19219921      -0.61248978
H        4.99349780       0.88125966      -0.95056963
H        5.26425782       2.99496889       1.33523948
H        6.16105774       2.94834893      -0.20776992
H        7.26012690       0.78285968       0.41723982
H        6.96771737       1.33149943       2.08934924
H        5.37736783      -0.61037979       0.87745968
