12
Properties=species:S:1:pos:R:3 atomization_energy=-1276.1 smiles=C.C.C.S.C.C.H.H.H.H.H.H pbc="F F F"
C        0.92411964       0.01840999      -0.00866000
C        2.41460902       0.04879998      -0.00087000
C        3.18488879       1.19659948       0.00250000
S        4.86381820       0.87003969       0.01132000
C        4.58836836      -0.81593968       0.01057999
C        3.24496861      -1.11943961       0.00378000
H        0.50283980       1.02881957       0.00053000
H        0.55019979      -0.51349979       0.87203966
H        0.55941978      -0.49382981      -0.90473965
H        2.84267890       2.22260916       0.00024000
H        5.42346774      -1.50270947       0.01511999
H        2.87123877      -2.13645923       0.00222000
