17
Properties=species:S:1:pos:R:3 atomization_energy=-1631.65 smiles=C.C.N.N.C.C.C.H.H.H.H.H.H.H.H.H.H pbc="F F F"
C        1.94856921      -0.70943974       1.31174946
C        2.90748893      -0.07836997       0.35142985
N        3.63443862       0.92830966       0.71428973
N        4.45446827       1.37407945      -0.26463988
C        5.16587790       2.53452895       0.28284990
C        5.77055796       3.53257855      -0.66630976
C        4.56630805       3.90701845       0.14775995
H        2.24933911      -1.74652934       1.47984939
H        0.94898960      -0.70200972       0.87024963
H        1.93494925      -0.17219993       2.26288905
H        2.96047874      -0.52063978      -0.66042975
H        5.12575773       0.65726974      -0.55112975
H        5.72822788       2.33583903       1.19318948
H        5.63092794       3.38696878      -1.73085932
H        6.72269716       3.97324835      -0.39611986
H        4.69705803       4.59278820       0.97579960
H        3.61165866       3.99505834      -0.35723987
