10
Properties=species:S:1:pos:R:3 atomization_energy=-879.38 smiles=C.C.N.H.H.H.H.H.H.H pbc="F F F"
C        1.00394961       0.00536000       0.00508000
C        2.52252908       0.01871999       0.01221999
N        3.01900875       1.38827951       0.02273999
H        0.63580973      -1.02558960       0.00151000
H        0.60622975       0.50810980      -0.88308963
H        0.59931979       0.50483981       0.89173967
H        2.90326894      -0.50432982      -0.87129964
H        2.89204877      -0.50739981       0.89820964
H        2.70257904       1.87513930      -0.81496965
H        4.03718833       1.37924946      -0.01960999
