17
Properties=species:S:1:pos:R:3 atomization_energy=-1616.05 smiles=C.N.N.C.C.C.C.H.H.H.H.H.H.H.H.H.H pbc="F F F"
C        1.15563956       0.25995989      -0.08186996
N        2.58917910       0.04505998       0.15771993
N        2.85918894      -0.78980970       1.19749955
C        3.77939839      -1.64827937       0.90956965
C        3.24702864       1.33463944       0.48184981
C        4.68304809       1.55511943       0.07971997
C        3.58772858       2.30037917      -0.62306977
H        1.00038960       0.92764963      -0.93609963
H        0.65621973       0.68918971       0.79389968
H        0.66953973      -0.69133970      -0.32188987
H        4.09304841      -2.38149912       1.66832936
H        4.28782821      -1.69800932      -0.06963997
H        2.93703894       1.77482930       1.42848938
H        5.19293790       0.77432969      -0.47142982
H        5.31582777       2.10093919       0.76838968
H        3.47879869       3.35761862      -0.41713984
H        3.36090877       2.01833918      -1.64396930
