15
Properties=species:S:1:pos:R:3 atomization_energy=-1508.75 smiles=C.C.N.N.C.C.C.H.H.H.H.H.H.H.H pbc="F F F"
C        1.46398936       3.20500867      -0.58697978
C        2.67942891       2.45235904      -0.14854993
N        3.86289858       2.85715893      -0.47479980
N        4.83234796       2.00173919       0.04280999
C        6.01775781       2.39956907      -0.28768990
C        7.22470716       1.66363941       0.13740995
C        8.43880657       2.09593912      -0.21885991
H        0.90088964       3.51322853       0.29734990
H        0.83621967       2.54287909      -1.18838951
H        1.73815926       4.08501848      -1.17370951
H        2.51465912       1.54431940       0.45907982
H        6.18039741       3.30559876      -0.90132965
H        7.07565711       0.77518969       0.73949971
H        8.58454655       2.98643883      -0.82225969
H        9.32648624       1.55476945       0.09370996
