17
Properties=species:S:1:pos:R:3 atomization_energy=-1628.75 smiles=C.C.N.N.C.C.C.H.H.H.H.H.H.H.H.H.H pbc="F F F"
C        1.73942937       0.85964963      -1.70671929
C        2.68888906       0.86838963      -0.54967980
N        3.96519847       0.90727962      -0.74681971
N        4.64648832       0.90844961       0.41668984
C        5.91005778       0.20613992       0.16756994
C        5.85633747       1.70390933       0.19868992
C        6.43416747       2.45464895       1.34699951
H        1.13026955      -0.04628998      -1.65717935
H        2.27865900       0.88894965      -2.65663886
H        1.08115957       1.72875929      -1.63036940
H        2.23881917       0.84026964       0.46071982
H        6.04046762      -0.28981989      -0.78679971
H        6.31841757      -0.32269988       1.01846957
H        5.95287789       2.24565911      -0.73531972
H        6.32307762       1.91722929       2.29527904
H        5.94181771       3.42729863       1.44837939
H        7.50177698       2.63098888       1.18092959
