17
Properties=species:S:1:pos:R:3 atomization_energy=-1672.11 smiles=C.C.C.C.C.N.N.H.H.H.H.H.H.H.H.H.H pbc="F F F"
C        3.30063869      -0.94157964       1.94270920
C        3.36161857      -0.79716970       0.44694982
C        3.19180872      -1.85282931      -0.36764986
C        3.57686849       0.59937978      -0.08760996
C        5.02045788       1.03654962       0.13533995
N        5.97961744       0.67227973      -0.76095972
N        5.37764791       1.72323929       1.17260960
H        4.26380829      -0.68897971       2.39556911
H        3.04939876      -1.96331924       2.24602903
H        2.53494907      -0.27760989       2.35662910
H        3.02032869      -2.85110879       0.02590999
H        3.21339869      -1.75047934      -1.44863942
H        2.89518879       1.30342947       0.40212985
H        3.36852867       0.64729976      -1.16334954
H        5.84171790      -0.22162991      -1.21692956
H        6.91223729       0.79282967      -0.37970984
H        4.56469817       1.91732921       1.76653933
