12
Properties=species:S:1:pos:R:3 atomization_energy=-1161.87 smiles=C.N.C.C.C.H.H.H.H.H.H.H pbc="F F F"
C        0.99649960      -0.04885998      -0.01331999
N        2.45032903       0.00498000       0.00674000
C        2.92365882       1.38591946       0.02619999
C        4.39212832       1.40245940      -0.00838000
C        5.59237778       1.41613941      -0.03731999
H        0.67044976      -1.09366953      -0.02094999
H        0.58763976       0.43709984      -0.90522961
H        0.56999978       0.42199983       0.87830965
H        2.81986891      -0.45483983      -0.82428969
H        2.57673892       1.89163924       0.93456962
H        2.53528896       1.93862925      -0.83722969
H        6.65807714       1.42148946      -0.05731998
