16
Properties=species:S:1:pos:R:3 atomization_energy=-1611.96 smiles=C.C.C.C.C.C.H.H.H.H.H.H.H.H.H.H pbc="F F F"
C        2.58297907      -0.55498979       1.25779953
C        2.36491919       0.18162993      -0.05784998
C        2.92355889       1.58859937      -0.03660998
C        2.10643913       2.63380893       0.18158992
C        4.33934819       1.83205929      -0.28170990
C        5.27882793       0.91332964      -0.53437982
H        2.13694926      -1.55358942       1.20711955
H        2.11452912      -0.02008999       2.09101917
H        3.64669864      -0.67406971       1.48560936
H        1.28526944       0.21219991      -0.25641991
H        2.79118894      -0.39273985      -0.88885962
H        1.04487957       2.49159907       0.36094986
H        2.46524913       3.65828847       0.19475993
H        4.65842813       2.87445877      -0.25914989
H        5.07265815      -0.14936995      -0.58092976
H        6.30747749       1.21876956      -0.70484970
