18
Properties=species:S:1:pos:R:3 atomization_energy=-1767.5 smiles=C.C.C.N.C.C.C.H.H.H.H.H.H.H.H.H.H.H pbc="F F F"
C        1.67628940      -0.37782985      -1.17828957
C        2.31789903       0.16929994      -0.13734994
C        2.96135887       1.52006936      -0.14789994
N        4.40322838       1.35179948      -0.01919999
C        5.07892808       2.64517898      -0.00281000
C        6.55872726       2.42300913       0.03898998
C        7.42271705       2.88404887      -0.87516964
H        1.23373949      -1.36533945      -1.09943958
H        1.58849932       0.13769994      -2.13029906
H        2.38616902      -0.38918983       0.79324967
H        2.56431892       2.09892912       0.69329975
H        2.71534902       2.05913913      -1.07021962
H        4.73655797       0.82741968      -0.82788964
H        4.78681832       3.21293869       0.88997966
H        4.80318805       3.23965880      -0.88419963
H        6.93636723       1.84768932       0.88111968
H        7.09526728       3.46373855      -1.73106926
H        8.48495645       2.68273899      -0.78215971
