17
Properties=species:S:1:pos:R:3 atomization_energy=-1564.59 smiles=C.N.C.C.C.O.H.H.H.H.H.H.H.H.H.H.H pbc="F F F"
C        1.50642947      -0.41264983       0.62194974
N        2.94386879      -0.33366986       0.38547984
C        3.34509870       1.04391958       0.07917997
C        4.86026791       1.14363957      -0.13931994
C        5.67291788       0.78839968       1.10312955
O        5.53234767      -0.58773974       1.43198947
H        1.23179957      -1.44682945       0.85277966
H        0.93684962      -0.10138996      -0.26027990
H        1.21071956       0.20539991       1.47658940
H        3.17379883      -0.92956962      -0.41390984
H        3.05883873       1.71183934       0.89975964
H        2.83523892       1.38899942      -0.82821969
H        5.10216779       2.17076921      -0.43850984
H        5.14927803       0.48447980      -0.96851959
H        5.36114797       1.38656947       1.96450923
H        6.73481713       0.97924960       0.92366961
H        4.56837817      -0.77467967       1.38915940
