15
Properties=species:S:1:pos:R:3 atomization_energy=-1546.96 smiles=C.C.N.C.C.C.N.H.H.H.H.H.H.H.H pbc="F F F"
C        2.39535917      -0.49587981      -1.40712942
C        2.46973911       0.08525997      -0.00660000
N        2.96341891       1.44840942      -0.00546000
C        2.21437912       2.59026892       0.02462999
C        3.11197868       3.63223855       0.01830999
C        4.37522819       3.01456872      -0.01338999
N        4.28922814       1.68137930      -0.02624999
H        2.01375924      -1.52087934      -1.37359951
H        3.38249873      -0.51406980      -1.88088930
H        1.73032930       0.09647996      -2.04456914
H        3.13638870      -0.50959978       0.62747977
H        1.47841943       0.08904996       0.45937981
H        1.13452953       2.56629896       0.04518998
H        2.88745887       4.68888805       0.03471999
H        5.35303805       3.47759860      -0.02703999
