14
Properties=species:S:1:pos:R:3 atomization_energy=-1462.48 smiles=C.C.C.C.N.C.C.H.H.H.H.H.H.H pbc="F F F"
C        0.99999962       0.00000000       0.00000000
C        2.44399905       0.00000000       0.00000000
C        3.63415853       0.00000000       0.00000000
C        5.07815797       0.00000000       0.00000000
N        5.57249760      -0.69698971      -1.18124954
C        5.56017779       1.36116943       0.00000000
C        5.95745771       2.48306901       0.00000000
H        0.60602978       1.02088962       0.01165000
H        0.60593976      -0.52052980       0.87823963
H        0.60601976      -0.50029980      -0.88995967
H        5.45073768      -0.52355979       0.88715967
H        5.21912787      -0.20976991      -2.00274927
H        5.15098783      -1.62281940      -1.20238948
H        6.31599771       3.48616852      -0.00344000
