20
Properties=species:S:1:pos:R:3 atomization_energy=-1910.69 smiles=C.N.C.C.C.C.C.H.H.H.H.H.H.H.H.H.H.H.H.H pbc="F F F"
C        1.11958949       0.39627984       0.94918963
N        2.57408894       0.43284983       0.89452963
C        3.03641884       1.47552948      -0.01606999
C        4.53352820       1.45746938       0.00642000
C        5.31569807       0.63694976      -0.99216959
C        5.31287801       2.14064919      -1.09137962
C        6.53780748       2.92131895      -0.75498969
H        0.80187965      -0.36793985       1.66427932
H        0.68827974       0.14762994      -0.02511999
H        0.71114973       1.35340948       1.28821945
H        2.92367875      -0.46758981       0.56902976
H        2.69015904       2.45997894       0.31905988
H        2.65622907       1.30400946      -1.03045960
H        4.92202800       1.53912945       1.01685958
H        4.77328831       0.08089997      -1.74847936
H        6.21277758       0.13940994      -0.64085976
H        4.76350795       2.59245890      -1.90994928
H        7.11791704       2.45246905       0.04760998
H        6.26320749       3.92971843      -0.43089984
H        7.18324712       3.00852892      -1.63413936
