17
Properties=species:S:1:pos:R:3 atomization_energy=-1785.49 smiles=C.C.C.C.C.C.C.H.H.H.H.H.H.H.H.H.H pbc="F F F"
C        0.89983963      -0.04903998       0.09806996
C        2.42985916       0.00189000       0.08594997
C        2.92309890       1.32973942      -0.54930976
C        3.91241834       1.19149949      -1.67285934
C        4.32454846       0.00559000      -2.13902923
C        3.84585840      -1.22998947      -1.57861942
C        2.97934883      -1.25022946      -0.55742978
H        0.48715981       0.81892968       0.62416975
H        0.53822976      -0.94823961       0.60994975
H        0.49228980      -0.05477998      -0.91940962
H        2.76239896      -0.00738000       1.13273961
H        3.38933867       1.93733921       0.23744991
H        2.07438914       1.91897921      -0.91961962
H        4.29436813       2.10571923      -2.11805923
H        5.03808827      -0.05205998      -2.95573895
H        4.22024835      -2.15671916      -2.00605923
H        2.65908899      -2.20721922      -0.15214994
