17
Properties=species:S:1:pos:R:3 atomization_energy=-1634.77 smiles=C.C.N.C.N.C.C.H.H.H.H.H.H.H.H.H.H pbc="F F F"
C        0.99097960      -0.01606999       0.07041997
C        2.51999896       0.00000000       0.00000000
N        3.04821886      -0.69976971       1.17987951
C        3.00420876      -0.74767972      -1.28926952
N        4.46544822      -0.97427962      -1.32490942
C        3.00201878       1.36116943       0.00000000
C        3.39929870       2.48306901       0.00000000
H        0.54828977       0.48838980      -0.79818969
H        0.61995973       0.49871980       0.96660964
H        0.59976976      -1.04100957       0.09081997
H        3.08722877      -0.05675997       1.96727919
H        4.01539852      -0.95177962       0.95583963
H        2.71526903      -0.18409992      -2.18488916
H        2.51825913      -1.72888937      -1.35024941
H        4.93425799      -0.06802997      -1.32505944
H        4.70498830      -1.41935941      -2.20942914
H        3.75317865       3.48837870       0.00550000
