19
Properties=species:S:1:pos:R:3 atomization_energy=-1808.45 smiles=C.C.C.C.N.N.C.H.H.H.H.H.H.H.H.H.H.H.H pbc="F F F"
C        1.03269960      -0.48557981       1.47654941
C        2.10766912      -0.62192974       0.41179985
C        3.17866882       0.45541982       0.55299978
C        4.23830820       0.27449988      -0.52136981
N        4.09724847       0.84850965      -1.67160929
N        5.30696791      -0.53009977      -0.23510990
C        6.44127766      -0.65547977      -1.11870962
H        0.27154988      -1.26179948       1.34775953
H        0.53815981       0.48902980       1.41304949
H        1.45862947      -0.59102976       2.47965901
H        1.64537933      -0.56118976      -0.58058975
H        2.56467900      -1.61621943       0.48387982
H        3.65325850       0.39845985       1.53908945
H        2.73565891       1.45336937       0.45719983
H        3.22863874       1.39042951      -1.69926934
H        5.46967767      -0.78302969       0.73146971
H        6.12829757      -0.96964959      -2.11900926
H        7.12924722      -1.41222941      -0.73013973
H        6.98229707       0.29331988      -1.19254957
