19
Properties=species:S:1:pos:R:3 atomization_energy=-1779.6 smiles=C.C.N.C.C.N.C.H.H.H.H.H.H.H.H.H.H.H.H pbc="F F F"
C        2.30910907      -0.43796981      -1.44451949
C        2.49635905       0.02609999      -0.00164000
N        3.22638870      -0.99402959       0.75466968
C        3.26495880       1.34173941       0.02957999
C        2.52693908       2.60040885      -0.48226982
N        3.15477886       3.37088872       0.61677979
C        3.29188860       2.10269920       1.37579947
H        1.73381929       0.29667989      -2.01894920
H        1.76739928      -1.38947947      -1.48608942
H        3.27101878      -0.57062979      -1.95377922
H        1.51001938       0.15382993       0.45905982
H        4.10442830      -1.21290955       0.28466987
H        2.69179894      -1.86271931       0.75551971
H        4.27001816       1.25005952      -0.41196982
H        1.43334941       2.56241886      -0.41139984
H        2.80042881       2.93229889      -1.48814945
H        4.05627845       3.77388848       0.35880987
H        4.21758827       2.01249923       1.95179918
H        2.44345906       1.90642926       2.04234926
