13
Properties=species:S:1:pos:R:3 atomization_energy=-1259.54 smiles=C.O.N.C.C.C.H.H.H.H.H.H.H pbc="F F F"
C        5.96859763      -0.82876965      -0.01741999
O        5.75685789       0.36338985       0.72939971
N        5.19556820       1.32555943      -0.12391995
C        5.00079825       2.41194895       0.54849977
C        4.41560825       3.61225845      -0.07898997
C        4.22518823       4.72367797       0.63958978
H        6.39279725      -1.58367942       0.64958973
H        6.67280723      -0.64350974      -0.83425969
H        5.01933803      -1.20188948      -0.41403982
H        5.26243800       2.48974898       1.61908931
H        4.15492836       3.54515852      -1.12878950
H        4.48676819       4.78874814       1.69126930
H        3.79462860       5.60712755       0.17785993
