15
Properties=species:S:1:pos:R:3 atomization_energy=-1420.3 smiles=C.O.C.C.C.N.H.H.H.H.H.H.H.H.H pbc="F F F"
C        1.37187950      -0.07421997      -0.21824991
O        2.74470902       0.18223993       0.05393998
C        3.17664866       1.49419947       0.01432000
C        2.39962912       2.57105894      -0.19740992
C        4.66265821       1.63397938       0.25715990
N        5.43246789       0.97753962      -0.79777971
H        1.21661957      -1.15628957      -0.17460993
H        1.10054959       0.26410989      -1.22358947
H        0.73045969       0.38825983       0.53874982
H        1.33280953       2.51045906      -0.37044985
H        2.83041888       3.56778860      -0.21527991
H        4.90761787       1.17793959       1.22368951
H        4.96418801       2.68526886       0.31126988
H        5.07829775       0.02373999      -0.88233964
H        6.40002755       0.89389963      -0.49470981
