19
Properties=species:S:1:pos:R:3 atomization_energy=-1768.66 smiles=C.C.N.C.C.N.C.H.H.H.H.H.H.H.H.H.H.H.H pbc="F F F"
C        1.50899946      -0.00029000       1.68472938
C        2.83507894      -0.04613998       0.94137960
N        3.56283862       1.20628951       1.14556952
C        4.83967818       1.16216952       0.41712984
C        5.66142772       2.43233908       0.73096971
N        6.85108734       1.56570939       0.94321960
C        5.93283775       0.43579983       1.23268954
H        0.95520962      -0.93062966       1.52393936
H        0.88569968       0.82861970       1.33268943
H        1.66203938       0.11826995       2.76262883
H        2.63938898      -0.20180992      -0.12588995
H        3.41886875      -0.89859968       1.30721949
H        3.65800863       1.39145940       2.14479928
H        4.79068807       0.90884962      -0.64793973
H        5.37856791       2.98903885       1.63297939
H        5.76191763       3.14296874      -0.09515996
H        7.39593713       1.42854944       0.09121997
H        6.25748764      -0.52688981       0.82583971
H        5.73980787       0.31019987       2.30511921
