15
Properties=species:S:1:pos:R:3 atomization_energy=-1497.39 smiles=C.N.N.C.C.C.C.H.H.H.H.H.H.H.H pbc="F F F"
C        2.97113873      -0.90350966       0.16395993
N        3.03241889       0.23181991       0.77602970
N        3.20475861       1.28141950      -0.06839997
C        4.56871832       1.56115935      -0.58228977
C        4.59204836       3.02950875      -0.83793968
C        3.51798850       3.60809852      -0.29843987
C        2.66467889       2.58759900       0.37539987
H        2.83542892      -1.82739924       0.74745969
H        3.03968880      -1.01435961      -0.93254965
H        4.74396793       0.99751958      -1.50363944
H        5.33783812       1.30081948       0.15388994
H        5.38826803       3.54157870      -1.35660942
H        3.30062860       4.66543840      -0.30779988
H        2.73481890       2.70666883       1.46278940
H        1.61844940       2.68016900       0.06869998
