20
Properties=species:S:1:pos:R:3 atomization_energy=-1913.79 smiles=C.C.N.C.C.C.C.H.H.H.H.H.H.H.H.H.H.H.H.H pbc="F F F"
C        0.92832966       1.92832922       0.63022974
C        2.42794901       2.13891920       0.77802968
N        3.12763886       1.45704937      -0.30845988
C        4.58505828       1.52763942      -0.18586993
C        5.19940818       0.60224973      -1.23935954
C        5.09943807       2.92970896      -0.38781986
C        5.80908794       3.61084868       0.52225978
H        0.39493983       2.44439899       1.43502943
H        0.67102975       0.86513967       0.68269975
H        0.56301980       2.32426913      -0.32330986
H        2.74623891       1.74079928       1.74826929
H        2.63270902       3.21511883       0.76651972
H        2.83495883       1.83380934      -1.20778949
H        4.88395828       1.14497957       0.79854970
H        4.92959794       0.90613965      -2.25810914
H        4.86218815      -0.43095983      -1.09708962
H        6.29342769       0.60404974      -1.17040952
H        4.87775800       3.40668872      -1.34001952
H        6.05741772       3.18188882       1.48837945
H        6.15291753       4.61998799       0.31763989
