20
Properties=species:S:1:pos:R:3 atomization_energy=-1917.82 smiles=C.C.C.C.N.C.C.H.H.H.H.H.H.H.H.H.H.H.H.H pbc="F F F"
C        1.41544941       0.35363986       0.79593971
C        2.69655892       0.55375981      -0.01891999
C        2.43672913       0.22104991      -1.50152945
C        3.70765859       0.25992990      -2.35232912
N        3.39886872      -0.09344996      -3.73624848
C        3.18747871       1.97065918       0.16201993
C        4.36301838       2.29364899       0.71552969
H        1.57875934       0.59284976       1.85246923
H        1.08082952      -0.68753972       0.73943972
H        0.60191975       0.98852959       0.42810984
H        3.44744855      -0.14906994       0.36583986
H        1.69439934       0.91749967      -1.91546928
H        1.99429920      -0.78198970      -1.56574939
H        4.44974817      -0.44202982      -1.95740926
H        4.15268842       1.25981956      -2.34231914
H        3.03590888      -1.04518956      -3.77544840
H        4.25949847      -0.09205996      -4.28298849
H        2.53372906       2.76955886      -0.18594992
H        5.05202805       1.53797945       1.07930960
H        4.66056841       3.33310868       0.81684971
