19
Properties=species:S:1:pos:R:3 atomization_energy=-1778.08 smiles=C.N.C.C.C.C.N.H.H.H.H.H.H.H.H.H.H.H.H pbc="F F F"
C        1.25561951      -0.07458997      -0.15140993
N        2.70640892       0.06298998      -0.13918994
C        3.36643860      -0.49935980      -1.30630946
C        3.29023860       1.01003963      -1.11566953
C        2.41198906       1.80928929      -2.04966914
C        4.53072833       1.74540937      -0.64276972
N        5.51885804       1.80561927      -1.71848928
H        0.78518971       0.83767966       0.22980990
H        0.97290959      -0.89044963       0.52239979
H        0.82065966      -0.30660988      -1.12956958
H        2.76724901      -0.96116963      -2.08213912
H        4.30761855      -1.00074961      -1.11490951
H        1.66228931       1.19585952      -2.55969899
H        3.01136891       2.28450904      -2.83311883
H        1.89278924       2.59978887      -1.49766941
H        4.98059812       1.25175947       0.22659990
H        4.26325821       2.76240880      -0.33565987
H        5.83352773       0.85853969      -1.92430920
H        6.34047738       2.30183916      -1.37545945
