20
Properties=species:S:1:pos:R:3 atomization_energy=-1911.6 smiles=C.N.C.C.C.C.C.H.H.H.H.H.H.H.H.H.H.H.H.H pbc="F F F"
C        3.34019868      -0.61625973      -1.04101960
N        2.78575903       0.21191992       0.02123999
C        3.07121886       1.65511932      -0.08547997
C        2.40375903       2.24760913      -1.34308951
C        2.40781904       2.31696919       1.14194958
C        4.56617835       1.90894929       0.01706999
C        5.35277764       2.55082904      -0.86089968
H        3.05610876      -1.65835937      -0.86167964
H        4.43387804      -0.57977976      -1.06939955
H        2.94382892      -0.34883985      -2.02461921
H        3.11476871      -0.13286994       0.92121966
H        2.85295888       1.87784921      -2.27142920
H        2.48522897       3.34147875      -1.35618942
H        1.33439947       2.00479921      -1.37482950
H        2.80862882       1.92558928       2.08559921
H        1.32370946       2.14827918       1.15063949
H        2.57099889       3.40195877       1.14409957
H        5.04491786       1.52220938       0.91681963
H        4.97452804       2.97145894      -1.78587927
H        6.41457748       2.66480884      -0.66579974
