21
Properties=species:S:1:pos:R:3 atomization_energy=-1927.05 smiles=C.N.C.C.C.C.N.H.H.H.H.H.H.H.H.H.H.H.H.H.H pbc="F F F"
C        1.08500952      -0.18839993      -0.05421998
N        2.48896902       0.02470999       0.27618990
C        2.90664892       1.43602942       0.17503994
C        2.26212903       2.28126911       1.27850949
C        4.44954832       1.47247943       0.25687990
C        5.03879782       2.87415874       0.07828997
N        6.49777765       2.81058893       0.05169998
H        0.87997965      -1.26341945      -0.06847998
H        0.83565968       0.21162991      -1.04187961
H        0.41976982       0.24946990       0.69446974
H        3.05637875      -0.53504982      -0.36340984
H        2.60855890       1.83375925      -0.80356971
H        2.55586910       1.92854925       2.27328914
H        1.16921952       2.26165918       1.22067958
H        2.55079901       3.33293860       1.19310949
H        4.86286793       0.81924970      -0.52421980
H        4.78026830       1.05798957       1.21956958
H        4.73709796       3.53161868       0.89869966
H        4.68450808       3.31610861      -0.85861968
H        6.83811751       2.40371916       0.92217965
H        6.87706737       3.75705849       0.01326999
