16
Properties=species:S:1:pos:R:3 atomization_energy=-1654.27 smiles=C.C.C.N.C.C.C.H.H.H.H.H.H.H.H.H pbc="F F F"
C        1.12075956       0.24890990       0.10756996
C        2.60207903      -0.05146998      -0.08226996
C        2.84199887      -0.75019969      -1.35724946
N        3.02098879      -1.30927952      -2.35918900
C        3.41045855       1.21793952      -0.18404993
C        3.84684855       1.93616928       1.07071962
C        4.86703796       1.24065955       0.21475992
H        0.95193960       0.79300970       1.04311957
H        0.53433976      -0.67598976       0.14114994
H        0.72459974       0.86466964      -0.70837970
H        2.95420881      -0.67106974       0.75056973
H        3.11163879       1.84223922      -1.02245963
H        3.61544868       1.49979946       2.03612917
H        3.83577853       3.02105894       1.06491953
H        5.54243789       1.85407923      -0.37329984
H        5.32223799       0.33512988       0.59972977
