14
Properties=species:S:1:pos:R:3 atomization_energy=-1415.86 smiles=C.C.N.N.C.C.N.H.H.H.H.H.H.H pbc="F F F"
C        0.55798976      -0.37972984       0.15311994
C        1.99972925       0.06193997       0.09269997
N        2.94769892      -0.81537969       0.14788995
N        2.26773911       1.39233940      -0.04743998
C        3.61355846       1.87069928      -0.33412986
C        3.66345848       3.34320874      -0.40631984
N        3.67457847       4.50343820      -0.47569981
H       -0.10125996       0.46913982       0.35320986
H        0.43037982      -1.12299950       0.94517965
H        0.28331990      -0.82896968      -0.80544970
H        2.55640909      -1.75905935       0.24819990
H        1.50949945       2.01038923      -0.31609988
H        3.95266846       1.45418945      -1.28951946
H        4.30403847       1.52809942       0.44502982
