18
Properties=species:S:1:pos:R:3 atomization_energy=-1779.46 smiles=C.C.C.C.N.C.C.H.H.H.H.H.H.H.H.H.H.H pbc="F F F"
C        1.01486963      -0.41807984      -0.35449987
C        2.45827898      -0.02548999      -0.41988984
C        3.02562891       1.11229952       0.03904999
C        2.25036913       2.17586908       0.79031966
N        1.81358928       3.24547882      -0.10271996
C        4.46300817       1.29446944      -0.17945993
C        5.21765779       2.33783900       0.18997992
H        0.89784962      -1.29015950       0.29525987
H        0.66812977      -0.69178973      -1.35616948
H        0.35851985       0.37416984       0.00877000
H        3.07898889      -0.75915972      -0.93293962
H        2.85196898       2.59198906       1.60606940
H        1.37140940       1.75222925       1.28651949
H        2.62887888       3.61546861      -0.58864977
H        1.43663943       4.00924844       0.45438983
H        4.97142790       0.48782981      -0.70859973
H        4.82849789       3.20085883       0.71629974
H        6.27940766       2.34619899      -0.03837999
