17
Properties=species:S:1:pos:R:3 atomization_energy=-1660.55 smiles=C.C.C.C.N.C.N.H.H.H.H.H.H.H.H.H.H pbc="F F F"
C        2.58643903      -1.14460953       1.75051933
C        2.79014884      -0.81949970       0.29681988
C        2.58137904      -1.73373930      -0.66690974
C        3.21774863       0.59132979      -0.01169000
N        4.64670835       0.66683972       0.17897993
C        5.30954775       1.84382928       0.26106990
N        6.57730742       1.98966918       0.12844995
H        1.79615924      -0.51441978       2.17194912
H        3.50761870      -0.97268962       2.31636914
H        2.29430908      -2.18944905       1.90120928
H        2.26688900      -2.74627903      -0.43114984
H        2.72505898      -1.49691935      -1.71691927
H        2.68985902       1.29652947       0.64098977
H        2.97132873       0.85936967      -1.04566956
H        5.16294783      -0.13220995      -0.16715993
H        4.66769828       2.71809893       0.46470980
H        7.01184707       1.07987962      -0.03700998
