13
Properties=species:S:1:pos:R:3 atomization_energy=-1319.85 smiles=C.C.O.N.C.C.H.H.H.H.H.H.H pbc="F F F"
C        1.13606951      -0.04453998       0.32939988
C        2.62094887      -0.23745991       0.16424994
O        3.12764870      -1.35584953       0.15622994
N        3.32494879       0.94845964       0.05559998
C        4.68600794       1.00285960      -0.09250996
C        5.34283781       2.16129922      -0.19066992
H        0.82006965       0.95263963       0.01118000
H        0.87203966      -0.18572992       1.38052941
H        0.60949978      -0.77988968      -0.28518990
H        2.81387882       1.82188933       0.09190996
H        5.21279788       0.05044998      -0.12632995
H        4.84096810       3.12186881      -0.15922994
H        6.42168767       2.16569912      -0.30697987
