18
Properties=species:S:1:pos:R:3 atomization_energy=-1794.67 smiles=N.C.C.C.C.C.C.H.H.H.H.H.H.H.H.H.H.H pbc="F F F"
N        3.00618880      -1.04295958      -0.61843975
C        2.48884892       0.06672997       0.17630994
C        3.30025867       1.34198947      -0.04716998
C        3.27046870       1.85932923      -1.49387939
C        3.36372857       3.34037859      -1.30860946
C        3.10597875       3.69922846      -0.04652998
C        2.79917901       2.51477898       0.81043968
H        2.47345898      -1.88642924      -0.40831985
H        3.96909850      -1.24000954      -0.34725985
H        2.51672899      -0.20931991       1.23650945
H        1.43880948       0.23214991      -0.08990997
H        4.34823833       1.14550959       0.22715991
H        2.34344908       1.60426939      -2.01820923
H        4.12071830       1.47466941      -2.06551920
H        3.57788867       4.02895829      -2.11442919
H        3.08257881       4.71963815       0.31053988
H        3.33694865       2.55857889       1.76249926
H        1.72403931       2.46431904       1.01273957
