18
Properties=species:S:1:pos:R:3 atomization_energy=-1757.72 smiles=C.C.N.C.C.C.C.H.H.H.H.H.H.H.H.H.H.H pbc="F F F"
C        1.17170953      -0.13091995       0.06327998
C        2.66932884      -0.36706984      -0.06546997
N        3.39300858       0.67041974       0.66640975
C        4.84794809       0.51289981       0.57884980
C        5.49923777       1.80966931       1.06099957
C        5.31259793      -0.61654979       1.40483938
C        5.68962776      -1.53810940       2.07898915
H        0.62067976      -0.89204966      -0.49848980
H        0.88923964       0.85043967      -0.33272986
H        0.84989968      -0.18529993       1.10885962
H        2.94081886      -0.34028986      -1.12687960
H        2.90243877      -1.36529946       0.32089988
H        3.11752871       0.66123974       1.64781937
H        5.14595786       0.35877985      -0.46551982
H        5.24641800       2.02970923       2.10534918
H        5.18053784       2.66079904       0.44859984
H        6.59160754       1.74403934       0.99558963
H        6.02267777      -2.35438916       2.67658892
