14
Properties=species:S:1:pos:R:3 atomization_energy=-1511.29 smiles=C.C.C.N.C.C.C.H.H.H.H.H.H.H pbc="F F F"
C        2.07069918      -0.77298968      -1.18017953
C        2.25120914       0.03213999      -0.11944995
C        1.46684941      -0.17563993       1.06179958
N        0.83049970      -0.34966987       2.01609924
C        3.25569874       1.10742953      -0.04198998
C        3.38714869       2.10326922      -1.16984959
C        2.80595890       2.53701895       0.14222995
H        2.66795894      -0.65699975      -2.07887913
H        1.32749948      -1.56573942      -1.17753951
H        4.17479844       0.81493969       0.46014983
H        2.71513883       2.04515922      -2.01887917
H        4.38259828       2.45138908      -1.42328947
H        3.40683860       3.17759868       0.77879967
H        1.74550929       2.76362882       0.17315993
