13
Properties=species:S:1:pos:R:3 atomization_energy=-1266.14 smiles=N.C.C.C.C.O.H.H.H.H.H.H.H pbc="F F F"
N        1.01692960      -0.01762999       0.07562997
C        2.46999901       0.00000000       0.00000000
C        2.95201883       1.36116943       0.00000000
C        3.34929875       2.48306901       0.00000000
C        3.83131857       3.84423844       0.00000000
O        2.84686886       4.69929823      -0.56299980
H        0.68562976      -0.96585964      -0.08545997
H        0.64415975       0.55225976      -0.68329973
H        2.79160883      -0.51605981      -0.91095962
H        2.87900880      -0.55453976       0.85109964
H        4.74498836       3.93685839      -0.59425979
H        4.04514837       4.18437845       1.01718962
H        3.19378876       5.60482780      -0.49394979
