14
Properties=species:S:1:pos:R:3 atomization_energy=-1455.92 smiles=C.C.C.C.C.C.H.H.H.H.H.H.H.H pbc="F F F"
C        0.99999962       0.00000000       0.00000000
C        2.44399905       0.00000000       0.00000000
C        3.63415853       0.00000000       0.00000000
C        5.07815797       0.00000000       0.00000000
C        5.59468762       1.40971947      -0.01834999
C        6.36079761       1.95203927       0.93810964
H        0.60601976       1.02088962       0.01169000
H        0.60592973      -0.52051980       0.87824966
H        0.60592973      -0.50026981      -0.88993967
H        5.45922762      -0.52279980      -0.88462967
H        5.45697784      -0.54223981       0.87407964
H        5.32485769       2.01577916      -0.88140967
H        6.65811751       1.39126952       1.81881934
H        6.70125758       2.98009876       0.85935964
