20
Properties=species:S:1:pos:R:3 atomization_energy=-1918.68 smiles=C.C.C.N.C.C.C.H.H.H.H.H.H.H.H.H.H.H.H.H pbc="F F F"
C        0.70141971       0.12500995       0.78249967
C        2.22182920       0.03841999       0.71776970
C        2.90343876       1.34630951       0.26630990
N        2.58591898       2.45564893       1.17622954
C        4.44128800       1.19928959       0.19155993
C        4.90338829       0.19785993      -0.83335968
C        5.63093803      -0.89012967      -0.54546978
H        0.27894990      -0.86469967       0.98317960
H        0.28728989       0.48467980      -0.16417993
H        0.37069985       0.79150966       1.58404933
H        2.47628913      -0.76562968       0.01626000
H        2.60414891      -0.26923988       1.69964934
H        2.52842909       1.61548930      -0.72902973
H        2.82522894       2.19320903       2.13189910
H        1.58212935       2.62895887       1.17334955
H        4.83782809       0.94226964       1.18308954
H        4.88452804       2.16774906      -0.07690997
H        4.63280793       0.39543986      -1.86754931
H        5.93318747      -1.12339957       0.47035981
H        5.94298752      -1.57221941      -1.33095944
