17
Properties=species:S:1:pos:R:3 atomization_energy=-1750.91 smiles=C.C.C.C.C.C.C.H.H.H.H.H.H.H.H.H.H pbc="F F F"
C        0.99999962       0.00000000       0.00000000
C        2.44399905       0.00000000       0.00000000
C        3.63415853       0.00000000       0.00000000
C        5.07989804       0.01188000       0.00235000
C        5.74501750       1.05492961       0.93931963
C        6.82210709      -0.00779999       1.23885955
C        5.76626783      -1.07190961       0.87455964
H        0.60596979       1.02085959       0.01177000
H        0.60602978      -0.52057979       0.87825963
H        0.60591977      -0.50027980      -0.88992963
H        5.49839801       0.04721998      -1.01331962
H        5.15144808       1.33396950       1.81860928
H        6.10754736       1.96550922       0.45455981
H        7.67501702       0.02160999       0.55118981
H        7.19154730      -0.03537999       2.26677899
H        6.14709777      -1.94388922       0.33559988
H        5.17899812      -1.41605942       1.73472932
