17
Properties=species:S:1:pos:R:3 atomization_energy=-1625.21 smiles=C.N.N.C.C.C.C.H.H.H.H.H.H.H.H.H.H pbc="F F F"
C        2.07837913      -0.00193000       2.49603909
N        2.90044888       0.02914999       1.50000940
N        3.84951847       0.99007959       1.60685932
C        4.82258829       1.01989960       0.51617979
C        5.90534777       2.07708922       0.83386964
C        6.93945728       1.03245958       0.35682986
C        5.91146781      -0.05114998       0.75616972
H        1.26363948      -0.74267971       2.50331910
H        2.14102920       0.67638970       3.36466875
H        3.43923869       1.90703927       1.79887925
H        4.41634809       1.06953959      -0.49965979
H        6.02202776       2.34501909       1.89134931
H        5.85868768       2.99452883       0.24074990
H        7.14459704       1.07240961      -0.71940972
H        7.88666693       1.01614958       0.90135967
H        5.87229792      -0.92338964       0.09813996
H        6.03019774      -0.39372984       1.79166926
