19
Properties=species:S:1:pos:R:3 atomization_energy=-1771.14 smiles=C.N.C.C.C.C.N.H.H.H.H.H.H.H.H.H.H.H.H pbc="F F F"
C        2.46633895      -1.14290957      -0.13025995
N        3.74919862      -0.43458984      -0.15478995
C        4.27868827      -0.42751983      -1.51934945
C        3.56479847       0.92911965       0.37140985
C        4.87906810       1.64004934       0.53530979
C        5.31948808       2.68568900      -0.45868981
N        4.88227826       3.06751867       0.87761965
H        2.07858920      -1.20694948       0.89277966
H        2.58737897      -2.17393925      -0.48207981
H        1.71151939      -0.65251973      -0.75553971
H        4.37067815      -1.45144938      -1.90030922
H        5.28898779      -0.00611000      -1.54895939
H        3.64358866       0.13921994      -2.20945917
H        3.11047883       0.86750969       1.36868940
H        2.87639894       1.50668937      -0.26010991
H        5.62529792       1.03510963       1.03790962
H        4.65096821       2.95274883      -1.26851944
H        6.37638765       2.78093900      -0.67571976
H        5.68161775       3.28626867       1.47620939
