21
Properties=species:S:1:pos:R:3 atomization_energy=-1919.15 smiles=C.C.C.N.N.C.C.H.H.H.H.H.H.H.H.H.H.H.H.H.H pbc="F F F"
C        0.92616964      -0.82721970       0.22019992
C        2.07139915      -0.12629995      -0.52847978
C        2.66776893      -1.05629958      -1.62712935
N        3.26707863      -2.28322922      -1.08997956
N        1.72869936       1.20752946      -1.08218959
C        0.65073973       1.19435954      -2.06922922
C        1.44021938       2.18696913      -0.03390998
H        0.52773978      -0.20414991       1.02577961
H        1.27726953      -1.75355929       0.68868972
H        0.10221996      -1.09079951      -0.45109981
H        2.88024876       0.03557998       0.19886993
H        3.44101864      -0.51531979      -2.18573902
H        1.89050930      -1.34979950      -2.34130906
H        4.04288849      -2.03289920      -0.47887981
H        3.67443868      -2.81335877      -1.85957930
H        0.89930967       0.56356975      -2.92722880
H        0.49631981       2.20122913      -2.47566915
H       -0.30273988       0.85564968      -1.64935935
H        2.24661923       2.21806921       0.70806970
H        0.49765982       1.98526928       0.48556980
H        1.37706945       3.19341885      -0.46328981
