11
Properties=species:S:1:pos:R:3 atomization_energy=-1149.68 smiles=C.C.C.C.N.S.H.H.H.H.H pbc="F F F"
C        0.89964963       0.03790999      -0.00783000
C        2.38219909       0.08513996       0.00010000
C        3.24229869       1.16555958       0.00288000
C        4.59399838       0.71630971       0.01066000
N        4.79354799      -0.59692977       0.01372999
S        3.31515858      -1.35110948       0.00699000
H        0.47677981       1.04811957      -0.00043000
H        0.52167979      -0.48930979       0.87422965
H        0.53131980      -0.47245981      -0.90375966
H        2.93069886       2.20043908      -0.00043000
H        5.47202788       1.35056949       0.01426999
