15
Properties=species:S:1:pos:R:3 atomization_energy=-1546.19 smiles=C.N.C.C.C.N.C.H.H.H.H.H.H.H.H pbc="F F F"
C        0.98333964       0.01832999      -0.00811000
N        2.42726898       0.00424000      -0.00072000
C        3.23686877       1.10993959       0.00389000
C        4.54598832       0.67290974       0.01055000
C        4.50777830      -0.73418971       0.00968000
N        5.55942786      -1.55716937       0.01452999
C        3.19621871      -1.13144957       0.00275000
H        0.62647978       1.05120955       0.00207000
H        0.62927977      -0.50690981       0.88258964
H        0.63904972      -0.48632980      -0.91437965
H        2.82708887       2.11116920       0.00193000
H        5.42119777       1.30743952       0.01520000
H        5.46247765      -2.56625910       0.02242999
H        6.51576736      -1.22082946       0.02867999
H        2.74518896      -2.11391911      -0.00019000
