15
Properties=species:S:1:pos:R:3 atomization_energy=-1449.59 smiles=C.C.N.C.C.O.H.H.H.H.H.H.H.H.H pbc="F F F"
C        2.28629908      -0.01671999       1.74542930
C        2.45646901       0.18818993       0.24835991
N        3.02933893       1.49013946      -0.07002998
C        2.14544904       2.63689898      -0.14346994
C        4.40158822       1.64836933      -0.08192997
O        5.22605790       0.76357968       0.10542996
H        1.87042929      -1.00850962       1.94782925
H        1.60966941       0.72989970       2.17298922
H        3.24575866       0.06501997       2.26655921
H        1.49332943       0.09539996      -0.26526989
H        3.11476871      -0.59447976      -0.14570995
H        1.36738952       2.44000894      -0.88622964
H        2.69494905       3.53768851      -0.43073983
H        1.68781930       2.79963901       0.83610965
H        4.71194810       2.68419898      -0.29805989
