17
Properties=species:S:1:pos:R:3 atomization_energy=-1788.55 smiles=C.C.C.C.C.C.C.H.H.H.H.H.H.H.H.H.H pbc="F F F"
C        2.46559911      -0.60215978      -1.36024943
C        2.33560915       0.08345997      -0.00859999
C        2.91748882       1.45586947      -0.00754000
C        2.27158918       2.62355899       0.15796993
C        3.22197871       3.70623847       0.11921995
C        4.45397825       3.21158872      -0.06215998
C        4.39307810       1.71468930      -0.16401994
H        1.99290924      -1.58994934      -1.32911945
H        3.51568850      -0.74376972      -1.63880938
H        1.97803923      -0.01925999      -2.14999907
H        2.83164900      -0.52127979       0.75856970
H        1.27438955       0.12592995       0.26348990
H        1.21003953       2.75656885       0.30544989
H        2.95902884       4.74833831       0.22623991
H        5.36125799       3.79278860      -0.12852995
H        4.76253799       1.37821945      -1.13687961
H        4.96901814       1.24396951       0.63812972
