18
Properties=species:S:1:pos:R:3 atomization_energy=-1750.39 smiles=C.C.N.C.C.C.C.H.H.H.H.H.H.H.H.H.H.H pbc="F F F"
C        3.39397854      -1.45352948       1.11752959
C        2.76707895      -0.08529997       1.36486948
N        3.26491867       0.96134960       0.46165981
C        2.49498914       2.19509925       0.62635973
C        4.71160795       1.21113957       0.55457976
C        5.17758809       1.63982930       1.88416923
C        5.56473792       1.98880923       2.96749885
H        2.87653898      -2.21291913       1.71328936
H        4.44953823      -1.47645945       1.40460939
H        3.31190881      -1.74185932       0.06433997
H        2.89734874       0.19229993       2.41797916
H        1.68700932      -0.19931993       1.20521950
H        1.43616947       2.01610920       0.40725984
H        2.83053900       2.96095893      -0.08193997
H        2.56591895       2.60504897       1.63993932
H        4.98925813       1.97293924      -0.18538992
H        5.26191770       0.31531989       0.24478991
H        5.90617743       2.29715917       3.92803840
