15
Properties=species:S:1:pos:R:3 atomization_energy=-1524.15 smiles=C.N.C.C.C.C.N.H.H.H.H.H.H.H.H pbc="F F F"
C        0.92898963      -0.10473996      -0.06184997
N        2.38198915      -0.05006998      -0.15805994
C        2.86568899       1.31474943       0.01064000
C        4.36082814       1.30949943      -0.03655998
C        5.08867816       2.01590923      -0.91542966
C        6.50882724       1.98340922      -0.92335961
N        7.66904686       1.96587926      -0.93919965
H        0.59468976      -1.13973953      -0.18320994
H        0.45262982       0.49659981      -0.84313966
H        0.58264978       0.24053991       0.91762962
H        2.66512905      -0.39690984      -1.07419952
H        2.55661903       1.70995935       0.98555959
H        2.44995912       1.96940925      -0.76468968
H        4.85864794       0.68954973       0.70860969
H        4.61110795       2.64087900      -1.66165936
