14
Properties=species:S:1:pos:R:3 atomization_energy=-1533.39 smiles=N.C.C.C.C.C.C.H.H.H.H.H.H.H pbc="F F F"
N        0.99999962       0.00000000       0.00000000
C        2.15100915       0.00000000       0.00000000
C        3.59500859       0.00000000       0.00000000
C        4.14517828      -1.22122954      -0.75608973
C        4.49578802      -0.66829971      -2.10231919
C        4.49597828       0.66751976      -2.10252913
C        4.14541825       1.22111952      -0.75669968
H        3.95166847       0.00014000       1.03667957
H        3.42188865      -2.03966925      -0.83605969
H        5.05396798      -1.60426939      -0.27827990
H        4.73842824      -1.28535952      -2.95847877
H        4.73862809       1.28420953      -2.95889889
H        5.05396798       1.60404936      -0.27879989
H        3.42197873       2.03932923      -0.83672969
