22
Properties=species:S:1:pos:R:3 atomization_energy=-2064.75 smiles=C.C.C.C.C.C.N.H.H.H.H.H.H.H.H.H.H.H.H.H.H.H pbc="F F F"
C        0.94163963       1.48652936       0.98047959
C        2.42732904       1.76676934       1.15869958
C        3.24008877       1.23112950      -0.02691999
C        4.76771835       1.47211948       0.05289998
C        5.38664807       0.80057971       1.28650953
C        5.43142778       0.90601966      -1.21411947
N        5.04633798       2.91152875       0.12087995
H        0.37853985       1.87032924       1.83699930
H        0.75201969       0.41110985       0.90419966
H        0.55646978       1.96928927       0.07660997
H        2.75728900       1.29770950       2.09189917
H        2.57180887       2.84702884       1.26487956
H        2.85042875       1.68526937      -0.94904965
H        3.05446885       0.15258994      -0.11877995
H        5.02377806       1.24221946       2.22092913
H        6.47895727       0.89808965       1.28797948
H        5.15135775      -0.26950990       1.30893950
H        5.03928785       1.38335943      -2.11982909
H        5.25115779      -0.17147994      -1.30302953
H        6.51713752       1.05879961      -1.20218951
H        4.68873816       3.37335879      -0.71460969
H        6.05319774       3.07144873       0.12500995
