14
Properties=species:S:1:pos:R:3 atomization_energy=-1339.0 smiles=C.C.C.N.C.H.H.H.H.H.H.H.H.H pbc="F F F"
C       -0.79852970      -1.00107960      -0.12428995
C       -1.18759958       0.42176983       0.22842990
C        0.02189999       1.21579949      -0.21563991
N        1.13907957       0.36721985       0.19127993
C        0.71946972      -1.02225959      -0.00198000
H       -1.28456948      -1.73249935       0.52818978
H       -1.09074955      -1.21899956      -1.15891949
H       -1.33314942       0.51449980       1.31175943
H       -2.10779919       0.73840970      -0.27058989
H        0.02087999       1.35161944      -1.30346946
H        0.06875997       2.19864904       0.26113991
H        1.97275920       0.57573975      -0.35527985
H        1.17249957      -1.45236938      -0.90148962
H        1.03611958      -1.62211931       0.85705964
