20
Properties=species:S:1:pos:R:3 atomization_energy=-1916.69 smiles=C.C.N.C.C.C.C.H.H.H.H.H.H.H.H.H.H.H.H.H pbc="F F F"
C        2.34384903      -0.44574982      -1.44745940
C        2.50205896       0.02999999      -0.00549000
N        3.21210877      -0.98319959       0.77876970
C        3.27744869       1.34497947       0.03397999
C        2.54391895       2.60768886      -0.50159981
C        3.25268868       3.40413866       0.61152978
C        3.33712856       2.08322919       1.40219949
H        1.78641925       0.28789990      -2.03975920
H        1.79730924      -1.39363941      -1.49231935
H        3.31553860      -0.58873979      -1.93321927
H        1.50773944       0.16618994       0.43547985
H        4.11477842      -1.18167951       0.34686988
H        2.69271894      -1.86044921       0.74972972
H        4.27876851       1.24148946      -0.41293985
H        1.45312940       2.58109895      -0.39395984
H        2.79243899       2.90273879      -1.52455934
H        4.22896841       3.80459846       0.31509989
H        2.66563900       4.20049838       1.07564954
H        4.25314831       1.93766926       1.98068922
H        2.47262906       1.90809919       2.05367918
