13
Properties=species:S:1:pos:R:3 atomization_energy=-1320.04 smiles=C.N.N.C.C.C.C.H.H.H.H.H.H pbc="F F F"
C        1.89987925      -0.33779986      -0.66485974
N        2.62730888       0.71978974      -0.80179967
N        2.90214884       1.28524951       0.39378983
C        4.21506824       1.91632922       0.27047990
C        2.96509893       2.74236890       0.18962992
C        2.62909891       3.59344867       1.29438945
C        2.34647908       4.30917846       2.21640913
H        1.59558932      -0.90669963      -1.55730941
H        1.55170942      -0.72242969       0.31070989
H        4.78387815       1.75090931      -0.63645974
H        4.80305836       1.94034927       1.17885958
H        2.67641885       3.11153887      -0.79004967
H        2.09283923       4.93987792       3.03632876
