15
Properties=species:S:1:pos:R:3 atomization_energy=-1455.34 smiles=C.C.C.C.C.H.H.H.H.H.H.H.H.H.H pbc="F F F"
C        0.97803961      -0.07465997       0.02100999
C        2.49876906      -0.05697998       0.02832999
C        3.04077888       1.37127945      -0.03079999
C        4.54279834       1.38584944      -0.01407000
C        5.29941816       1.88102922      -1.00069959
H        0.61070977      -1.10472959       0.06521998
H        0.58487975       0.38727984      -0.89026965
H        0.57520979       0.46704983       0.88277964
H        2.86809876      -0.63515972      -0.82711965
H        2.85781878      -0.55937979       0.93517963
H        2.67901887       1.94236918       0.83260969
H        2.65900900       1.87424921      -0.92768962
H        5.02968816       0.97315959       0.86751966
H        4.86165825       2.30814920      -1.89791926
H        6.38325762       1.86843928      -0.92955965
