12
Properties=species:S:1:pos:R:3 atomization_energy=-1197.04 smiles=C.N.C.C.C.H.H.H.H.H.H.H pbc="F F F"
C       -0.37216987       1.18164948       0.10749996
N       -1.24678956      -0.00167000      -0.00672000
C       -0.37147987      -1.18512951       0.09358996
C        1.01273957      -0.66672971      -0.03976999
C        1.01228960       0.66594975      -0.03211999
H       -0.51104980       1.65974934       1.08284956
H       -0.60784979       1.90802929      -0.67713976
H       -1.64792939       0.00408000      -0.94362964
H       -0.60651975      -1.90233922      -0.69920972
H       -0.50957979      -1.67437938       1.06301961
H        1.88959927      -1.29248952      -0.10372996
H        1.88824930       1.29351954      -0.08878997
