20
Properties=species:S:1:pos:R:3 atomization_energy=-1911.2 smiles=C.N.C.C.C.C.C.H.H.H.H.H.H.H.H.H.H.H.H.H pbc="F F F"
C        1.53108942       0.67491975       0.79631966
N        2.97391891       0.71008974       0.98097959
C        3.63030846       1.36623951      -0.14710994
C        5.12602823       1.38583947       0.09778996
C        5.56691806       2.17134907       1.31072954
C        5.94334785       0.17020994      -0.29283988
C        6.03199787       1.42285949      -1.11717961
H        1.06270961       0.21366991       1.67110929
H        1.25319953       0.08742997      -0.08455997
H        1.11809961       1.68458933       0.69767972
H        3.33105873      -0.24000991       1.06253955
H        3.27442879       2.39657894      -0.25688991
H        3.40148868       0.83196965      -1.07818963
H        6.65432750       2.30081898       1.33886952
H        5.27338817       1.65694935       2.23125907
H        5.11229788       3.16696872       1.30936948
H        5.43415800      -0.68393971      -0.72414970
H        6.79897740      -0.09600996       0.31839987
H        6.94881725       2.00028917      -1.06660952
H        5.58276799       1.41368940      -2.10414922
