16
Properties=species:S:1:pos:R:3 atomization_energy=-1617.42 smiles=C.C.N.C.C.C.C.H.H.H.H.H.H.H.H.H pbc="F F F"
C        0.99388961      -0.01615000       0.16588994
C        2.51999896       0.00000000       0.00000000
N        3.11308868      -0.70681972       1.13685955
C        2.89384891      -0.77104969      -1.24714951
C        3.49628852      -0.33008988      -2.36311906
C        3.00201878       1.36116943       0.00000000
C        3.39929870       2.48306901       0.00000000
H        0.49730980       0.49084981      -0.67138976
H        0.68086972       0.49855982       1.08340961
H        0.59913975      -1.03895957       0.21054992
H        2.87397883      -0.20436991       1.98964925
H        4.12656835      -0.63848974       1.05217958
H        2.62791901      -1.82836933      -1.21711957
H        3.79866842       0.70377970      -2.49292911
H        3.70131852      -1.01194959      -3.18246868
H        3.75526845       3.48738855      -0.00245000
