20
Properties=species:S:1:pos:R:3 atomization_energy=-1908.05 smiles=C.N.C.C.C.C.C.H.H.H.H.H.H.H.H.H.H.H.H.H pbc="F F F"
C        1.66462930      -0.48247982      -1.03953961
N        2.26984910       0.07370997       0.16424994
C        3.13949869       1.22329953      -0.12622995
C        4.35037810       0.91295966      -0.98777960
C        2.27284907       2.47006891      -0.45815982
C        3.12640875       3.25697882       0.55904980
C        3.44695852       1.90871929       1.23934957
H        0.93251962      -1.24440957      -0.75214970
H        2.40683898      -0.96776960      -1.68085938
H        1.12989950       0.27500991      -1.62140937
H        2.73721882      -0.67351975       0.67702974
H        5.02138797       1.77581932      -1.06018958
H        4.06063848       0.64959976      -2.01038923
H        4.93037815       0.08154997      -0.57182975
H        1.21655952       2.41095905      -0.16706993
H        2.32938918       2.83346881      -1.48836936
H        3.99987837       3.74982845       0.11735995
H        2.58471890       3.98097851       1.17323954
H        4.47057811       1.80969933       1.61224937
H        2.75685903       1.67577931       2.06028913
