16
Properties=species:S:1:pos:R:3 atomization_energy=-1618.35 smiles=C.C.C.C.N.C.C.H.H.H.H.H.H.H.H.H pbc="F F F"
C        0.95993964       0.02135999       0.20409992
C        2.44934898      -0.05761998      -0.01762999
C        3.02130874      -1.22539956      -0.36722985
C        3.27502883       1.20211948       0.16688994
N        2.86277886       2.24682917      -0.76044970
C        3.17664866       1.69653937       1.54999938
C        3.10285867       2.10546916       2.67664897
H        0.49741982       0.71530972      -0.50451979
H        0.73206969       0.35528986       1.22094958
H        0.47509983      -0.95166960       0.06730997
H        2.43636906      -2.13118904      -0.49706980
H        4.09228839      -1.30961954      -0.52857980
H        4.33041819       0.98515964      -0.03977998
H        1.92436926       2.55264910      -0.51723981
H        2.81130883       1.84639928      -1.69381936
H        3.04037868       2.47263890       3.67526860
