15
Properties=species:S:1:pos:R:3 atomization_energy=-1523.33 smiles=C.C.C.C.N.C.N.H.H.H.H.H.H.H.H pbc="F F F"
C        3.39471863      -0.67602976       0.18563993
C        2.57694911       0.36801987       0.37582984
C        2.64630892       1.69059936      -0.24675991
C        1.62978942       2.53318907       0.00602000
N        3.74253859       2.00282926      -1.03200961
C        4.04299850       3.12633885      -1.73457931
N        5.11076774       3.32275880      -2.42810899
H        3.21303861      -1.60484938       0.72086971
H        4.24019816      -0.67490972      -0.48962981
H        1.75136931       0.21501992       1.07290960
H        0.78710970       2.25349904       0.63154975
H        1.59126941       3.53740867      -0.39944984
H        4.44419839       1.27907951      -1.06095957
H        3.28483872       3.92326833      -1.69021935
H        5.71986764       2.50461911      -2.38319908
