15
Properties=species:S:1:pos:R:3 atomization_energy=-1486.14 smiles=C.C.C.C.C.N.N.H.H.H.H.H.H.H.H pbc="F F F"
C        1.00098958      -0.05431998       0.00319000
C        2.51999896       0.00000000       0.00000000
C        3.00201878       1.36116943       0.00000000
C        3.39929870       2.48306901       0.00000000
C        4.12845831       3.71425857       0.11228996
N        3.41226878       4.77099816      -0.06499998
N        4.12943837       5.91630753       0.07298997
H        0.65772975      -1.09376957       0.00272000
H        0.58486979       0.44153983      -0.88069968
H        0.58869980       0.43947983       0.89003965
H        2.89558898      -0.53272976      -0.88084962
H        2.89935881      -0.53409980       0.87839967
H        5.20562814       3.68393845       0.34564985
H        3.50682865       6.72143752      -0.02927999
H        4.82868814       6.01535763      -0.66732975
