15
Properties=species:S:1:pos:R:3 atomization_energy=-1524.31 smiles=N.C.C.C.C.C.N.H.H.H.H.H.H.H.H pbc="F F F"
N        1.41026943       0.30144987       0.55372978
C        2.55240888       0.00080000       0.03478999
C        2.91506896      -1.43869947      -0.24713990
C        4.20842839      -1.32559942      -1.04445957
C        4.61796833       0.11212996      -0.92738966
C        3.85720852       1.17430955      -1.66439930
N        3.55914853       0.90027963      -0.25952991
H        1.39904939       1.32120949       0.67961974
H        2.12263905      -1.95080928      -0.79784967
H        3.08095884      -1.95028923       0.70640974
H        4.97664813      -1.99773924      -0.64968972
H        4.04048832      -1.58997937      -2.09435915
H        5.60434787       0.29810989      -0.53008981
H        4.32853832       2.13590915      -1.81296930
H        3.06687876       0.90954966      -2.35387919
