21
Properties=species:S:1:pos:R:3 atomization_energy=-1927.87 smiles=C.C.C.N.C.C.N.H.H.H.H.H.H.H.H.H.H.H.H.H.H pbc="F F F"
C        2.09456921      -1.29059943       0.83632968
C        3.17986866      -0.45207983       0.17718993
C        3.00146869       1.03353962       0.49086980
N        4.05990849       1.80698930      -0.16001993
C        3.92191836       3.23916877       0.15103994
C        5.04003778       4.07265828      -0.50378980
N        5.18301775       3.79367857      -1.93855923
H        2.24615924      -2.35083911       0.61261973
H        1.10336952      -1.00424957       0.47125982
H        2.10958923      -1.16696948       1.92366929
H        3.15005875      -0.61736974      -0.90694963
H        4.16031841      -0.79526971       0.53061977
H        3.04381871       1.17989957       1.57660935
H        2.01750926       1.36777949       0.14120995
H        3.96751841       1.70852939      -1.17278951
H        3.96033832       3.39738855       1.23503950
H        2.95055884       3.60210868      -0.20904992
H        5.99477750       3.86052844      -0.00922000
H        4.82581813       5.13740787      -0.36348986
H        5.51615759       2.83314885      -2.03061926
H        5.93393791       4.37624811      -2.30983906
