15
Properties=species:S:1:pos:R:3 atomization_energy=-1418.68 smiles=N.C.C.C.C.O.H.H.H.H.H.H.H.H.H pbc="F F F"
N        2.04331922      -0.42599982      -1.31147947
C        2.42670906       0.11923996      -0.00574000
C        3.26039867       1.38863946      -0.15953994
C        2.53412900       2.65962898      -0.62290974
C        3.08135879       3.27704874       0.65844971
O        3.54088857       1.99039918       1.13676960
H        1.46032943      -1.25021950      -1.16353954
H        2.87745898      -0.76270971      -1.79250927
H        2.99700874      -0.63811976       0.54253977
H        1.51857934       0.32677986       0.57113975
H        4.20436838       1.20629947      -0.69084974
H        1.44331940       2.59402891      -0.65980971
H        2.91201878       3.09944867      -1.54896936
H        3.91603854       3.97176842       0.52699979
H        2.33198921       3.71369865       1.32405944
