19
Properties=species:S:1:pos:R:3 atomization_energy=-1774.27 smiles=C.C.C.C.N.N.C.H.H.H.H.H.H.H.H.H.H.H.H pbc="F F F"
C        0.63334975      -1.06426953       0.26040990
C        2.12371928      -0.91426963      -0.05384998
C        2.53796898      -1.94442922      -1.10665954
C        2.47402900       0.50211980      -0.54264979
N        2.19649918       1.51476939       0.48173980
N        2.47377893       2.79145894       0.12495995
C        2.15889905       3.65658851       1.03043960
H        0.32627986      -0.39352984       1.06942957
H        0.40604985      -2.08738913       0.57986978
H        0.01793999      -0.84122964      -0.61823978
H        2.69012901      -1.12557959       0.86218966
H        2.00422920      -1.78654933      -2.05043925
H        2.32351920      -2.96189886      -0.76214972
H        3.61246864      -1.88179921      -1.31033944
H        1.90106924       0.73534974      -1.44910939
H        3.53813867       0.54486980      -0.80639966
H        2.67224882       1.24974953       1.34703951
H        2.34279908       4.72618816       0.84534964
H        1.70007932       3.39107875       1.99888924
