13
Properties=species:S:1:pos:R:3 atomization_energy=-1254.34 smiles=C.C.C.C.O.H.H.H.H.H.H.H.H pbc="F F F"
C        0.83548967      -0.01705999      -0.23017991
C        2.28891903      -0.12722995       0.10189996
C        2.66521887      -0.05828997       1.54583944
C        3.23362884      -0.77172973      -0.88704965
O        3.13624866       0.65432977      -0.75384972
H        0.66186975      -0.00989000      -1.31164954
H        0.41527984       0.90565965       0.18274993
H        0.28563990      -0.86415968       0.19288993
H        3.75090842      -0.08681996       1.68781930
H        2.23249903      -0.90398966       2.09087912
H        2.29258919       0.86742964       1.99710917
H        2.82886881      -1.21740949      -1.78719934
H        4.13447843      -1.24699950      -0.51981980
