17
Properties=species:S:1:pos:R:3 atomization_energy=-1668.68 smiles=C.C.C.N.C.C.N.H.H.H.H.H.H.H.H.H.H pbc="F F F"
C        3.46214861      -2.09468919       0.81228971
C        2.94052893      -0.80730970       0.22904991
C        1.64485940      -0.74410974      -0.12472995
N        3.79245855       0.26441989       0.00983000
C        5.11840783       0.51114979       0.28767990
C        5.72565763       1.71206935      -0.41001984
N        5.89694766      -0.13409995       1.08696963
H        4.35634826      -2.43094898       0.27588988
H        2.72865899      -2.90637892       0.74085971
H        3.69574856      -1.97101925       1.87478932
H        0.97286959      -1.58503935       0.02230999
H        1.20930953       0.14621994      -0.56672976
H        3.34473862       1.00263957      -0.52789979
H        5.24545813       2.62378885      -0.04162998
H        5.55990779       1.63128940      -1.48824937
H        6.80090723       1.77235935      -0.21899991
H        5.38405763      -0.88617968       1.54133937
