17
Properties=species:S:1:pos:R:3 atomization_energy=-1787.48 smiles=C.C.C.C.C.C.C.H.H.H.H.H.H.H.H.H.H pbc="F F F"
C        1.02883957       0.03436999       0.11987995
C        2.54762898      -0.02175999      -0.04727998
C        2.97643895      -1.24880947      -0.87685963
C        3.43944863      -0.66544976      -2.17472905
C        3.49873866       0.66913972      -2.13105909
C        3.06984870       1.15506954      -0.84402969
C        3.14986874       2.42674893      -0.43761983
H        0.72751972       0.91804962       0.69375975
H        0.66818976      -0.85047966       0.65605975
H        0.51540980       0.07278997      -0.84822969
H        3.01845891      -0.06066997       0.94300960
H        2.15951903      -1.96061929      -1.03060961
H        3.80630851      -1.77549924      -0.39357986
H        3.72456857      -1.26302947      -3.02955871
H        3.83561855       1.30487949      -2.93766875
H        2.82032892       2.71754884       0.55453976
H        3.55134872       3.20441872      -1.07858958
