18
Properties=species:S:1:pos:R:3 atomization_energy=-1789.03 smiles=C.N.C.C.C.C.C.H.H.H.H.H.H.H.H.H.H.H pbc="F F F"
C        3.01444886      -1.08590959      -0.53805982
N        2.47730905       0.05993998       0.18406993
C        3.25822862       1.27887953      -0.05379998
C        3.20766875       1.81891927      -1.49698937
C        3.34760864       3.29606871      -1.30042951
C        3.10910866       3.64786845      -0.03186999
C        2.77290881       2.45960902       0.81315968
H        2.41770916      -1.97292927      -0.30353986
H        4.04989851      -1.29328954      -0.24965990
H        2.96521879      -0.93987962      -1.62128939
H        2.47698909      -0.14665994       1.18285954
H        4.30904826       1.08504951       0.21324992
H        2.25796910       1.59991933      -1.99586921
H        4.02675847       1.41055948      -2.09771919
H        3.56844870       3.98736855      -2.10173921
H        3.10986868       4.66390826       0.33748987
H        3.29675859       2.48087903       1.77355932
H        1.69379930       2.43162902       0.99956958
