10
Properties=species:S:1:pos:R:3 atomization_energy=-1003.91 smiles=C.C.C.C.H.H.H.H.H.H pbc="F F F"
C        1.00011961      -0.05479998       0.00296000
C        2.51999896       0.00000000       0.00000000
C        3.00201878       1.36116943       0.00000000
C        3.39929870       2.48306901       0.00000000
H        0.65815972      -1.09406960       0.00206000
H        0.58494978       0.44111983      -0.88058966
H        0.58855976       0.43840982       0.88970967
H        2.89575880      -0.53278982      -0.88075966
H        2.89927882      -0.53414982       0.87842964
H        3.75485842       3.48770850       0.00000000
