15
Properties=species:S:1:pos:R:3 atomization_energy=-1400.71 smiles=C.C.C.O.N.C.H.H.H.H.H.H.H.H.H pbc="F F F"
C        0.83754964      -0.52301980      -0.16693993
C        2.33390920      -0.24738990      -0.23853991
C        2.96186884      -0.95384962      -1.43250940
O        2.55131907       1.15851954      -0.40804983
N        2.57337888       1.77677932       0.85170965
C        2.79292902       3.03734869       0.68486974
H        0.39070984      -0.01086999       0.69203973
H        0.63527977      -1.59450935      -0.07339997
H        0.32528988      -0.14504994      -1.05893953
H        2.82755896      -0.59760974       0.67664973
H        2.52100904      -0.60569974      -2.37338894
H        2.83515893      -2.03903918      -1.36536948
H        4.03298852      -0.73052971      -1.48624940
H        2.85033893       3.70462860       1.55790933
H        2.93107887       3.49600869      -0.30808987
