19
Properties=species:S:1:pos:R:3 atomization_energy=-1814.1 smiles=C.C.C.C.C.N.N.H.H.H.H.H.H.H.H.H.H.H.H pbc="F F F"
C        2.96863888      -0.96632961      -1.01686961
C        2.53288905      -0.07159997       0.13588994
C        3.16239876       1.32675952       0.07130997
C        2.58686901       2.23752900       1.15555957
C        4.68136807       1.27425948       0.20142992
N        5.45080783       1.74908937      -0.81319967
N        5.27904796       0.80480966       1.24762957
H        2.44055902      -1.92435929      -0.97019962
H        4.04251832      -1.17592951      -0.97731964
H        2.74295885      -0.50225981      -1.98282924
H        2.77912903      -0.56683978       1.08189953
H        1.44080946       0.02332999       0.10364996
H        2.92081883       1.77432931      -0.90163963
H        2.73101904       1.81590934       2.15651906
H        1.51256944       2.38657906       1.00539958
H        3.07096879       3.21962875       1.13786951
H        5.07579817       2.50137893      -1.37621947
H        6.41736725       1.88090924      -0.53315980
H        4.59561834       0.47488982       1.93763923
