21
Properties=species:S:1:pos:R:3 atomization_energy=-1932.33 smiles=C.C.N.C.C.C.N.H.H.H.H.H.H.H.H.H.H.H.H.H.H pbc="F F F"
C        1.09337960      -0.23947990       0.13706995
C        2.61652903      -0.09192996       0.20020992
N        3.19676880      -0.88009963      -0.89616966
C        3.09588878       1.38627941       0.12296995
C        2.44824906       2.24111917       1.22498952
C        4.63689822       1.46523941       0.21622991
N        5.13534783       2.83507894       0.06344997
H        0.61594975       0.18236993       1.02634957
H        0.80079968      -1.29506948       0.09694996
H        0.67911974       0.25903989      -0.74588968
H        2.96552890      -0.52920980       1.14398955
H        2.83528888      -0.54194976      -1.78836927
H        2.88690879      -1.84924923      -0.82054970
H        2.78515898       1.80396927      -0.84510968
H        2.66668895       1.83428927       2.21836924
H        1.36138946       2.28958898       1.10584956
H        2.80662884       3.27505860       1.19696953
H        5.10447814       0.85344966      -0.56215979
H        4.97389822       1.07631961       1.18386950
H        4.87485820       3.18253883      -0.85897969
H        6.15487764       2.81762897       0.07998997
