14
Properties=species:S:1:pos:R:3 atomization_energy=-1511.06 smiles=N.C.C.C.C.C.C.H.H.H.H.H.H.H pbc="F F F"
N       -1.33051950       0.82766967       0.55912979
C       -1.12574953      -0.38842984      -0.21908991
C       -0.20319991      -1.40360940       0.31505986
C        1.12797951      -1.22232957       0.40931984
C        1.72675932       0.03941999       0.01575000
C        0.96015961       1.04432962      -0.44836984
C       -0.49637981       0.93595965      -0.63212973
H       -2.25698904       1.21350946       0.38468985
H       -1.96904918      -0.75789970      -0.79022971
H       -0.63494972      -2.34396914       0.64407976
H        1.77390930      -1.99422918       0.81300967
H        2.79745887       0.16054994       0.14077995
H        1.42511950       1.99043917      -0.70789969
H       -0.91466964       1.46130948      -1.48231946
