18
Properties=species:S:1:pos:R:3 atomization_energy=-1761.19 smiles=C.C.C.C.N.C.C.H.H.H.H.H.H.H.H.H.H.H pbc="F F F"
C        2.01955920      -1.00985959      -0.09255996
C        2.25515913       0.21448991      -0.58121975
C        3.01337873       1.28703954       0.15470994
C        4.25104841       1.74675934      -0.62787978
N        4.93039783       2.82258879       0.10749996
C        6.16310768       2.40067907       0.76726971
C        6.19977747       3.21222863      -0.50035979
H        1.45651948      -1.73869937      -0.66751976
H        2.37367912      -1.31086946       0.88850964
H        1.86793928       0.47395982      -1.56454942
H        3.31306878       0.93110965       1.14870953
H        2.33630912       2.13645923       0.31109987
H        3.93428840       2.13672922      -1.60372940
H        4.90277815       0.88535966      -0.82883967
H        6.45498732       1.35835946       0.72469972
H        6.39450756       2.90355887       1.69878928
H        6.45137747       4.26308814      -0.42541984
H        6.50380736       2.72802892      -1.41993939
