15
Properties=species:S:1:pos:R:3 atomization_energy=-1489.33 smiles=N.C.C.N.C.C.C.H.H.H.H.H.H.H.H pbc="F F F"
N        1.02500962      -0.10059996      -0.13653994
C        2.49697903      -0.03261999      -0.04269999
C        3.33016876      -0.74017968      -1.08610956
N        2.63866908      -1.48542945      -2.15695912
C        3.27216866       0.76953968      -1.06203955
C        4.42828840       1.50006946      -0.62385976
C        5.39438808       2.11371913      -0.26439990
H        0.60983973       0.70525974       0.33203986
H        0.68179975      -0.92104965       0.36252987
H        2.88356893      -0.04899998       0.97447959
H        4.25581848      -1.20224956      -0.75044968
H        1.70653938      -1.07299956      -2.26586908
H        2.45480892      -2.43800896      -1.84471926
H        2.70259897       1.24766956      -1.85312933
H        6.25471755       2.65946900       0.04823998
