17
Properties=species:S:1:pos:R:3 atomization_energy=-1752.67 smiles=C.C.C.C.C.C.C.H.H.H.H.H.H.H.H.H.H pbc="F F F"
C        1.68267932      -0.67301976      -0.90113964
C        1.89973920       0.45980981      -0.22262991
C        3.18665864       1.15436957      -0.11590996
C        3.65304856       1.99533919      -1.27290950
C        3.19508877       2.66267891      -0.00377000
C        4.19900836       3.31070872       0.84620965
C        4.29558840       3.18593874       2.17594907
H        0.69862974      -1.12987956      -0.92523961
H        2.48383913      -1.16558949      -1.44400940
H        1.06012953       0.90342968       0.31039987
H        3.94613838       0.60285974       0.43156985
H        3.01599893       2.08409923      -2.14611923
H        4.71128800       1.97690917      -1.50848937
H        2.24582918       3.18879866      -0.04667998
H        4.91281791       3.96029845       0.34186987
H        3.60780859       2.55760893       2.73347902
H        5.06775788       3.70847842       2.73066881
