18
Properties=species:S:1:pos:R:3 atomization_energy=-1791.1 smiles=N.C.C.C.C.C.C.H.H.H.H.H.H.H.H.H.H.H pbc="F F F"
N        1.54051942      -0.35563987      -0.50683979
C        2.83305877       0.00650000       0.06769997
C        3.65492868      -1.08472956       0.70103969
C        4.09076834      -0.46515980      -0.59708975
C        5.07459808       0.66774976      -0.62173974
C        4.21158834       1.91493926      -0.40652985
C        3.05678879       1.44445943       0.48657979
H        1.24049957       0.33392985      -1.19631952
H        0.81936968      -0.37126986       0.21458991
H        3.27521884      -2.10034911       0.66717974
H        4.21433824      -0.86079963       1.60062939
H        4.02712839      -1.03181960      -1.51435935
H        5.80861759       0.55837980       0.18562993
H        5.61470758       0.72045974      -1.57202941
H        4.77214828       2.74591895       0.03039999
H        3.81053859       2.24657911      -1.37176948
H        3.34030869       1.49461935       1.54373941
H        2.17177904       2.07220913       0.34190986
