19
Properties=species:S:1:pos:R:3 atomization_energy=-1783.29 smiles=C.N.C.C.C.C.N.H.H.H.H.H.H.H.H.H.H.H.H pbc="F F F"
C        2.59500896      -0.91017966      -0.40246984
N        2.22865905       0.32715987       0.27228990
C        3.31084877       1.31989951       0.24228991
C        3.43891874       2.24557913      -0.93386966
C        3.00803890       2.80567882       0.39681986
C        1.57548938       3.26493861       0.52195979
N        3.97702852       3.63306847       1.14463956
H        1.75234936      -1.60788934      -0.37303984
H        3.45102862      -1.39034952       0.08302997
H        2.83904887      -0.72930969      -1.45447938
H        1.96556928       0.12063995       1.23557949
H        4.24281837       0.97210964       0.68484974
H        2.70158889       2.17291908      -1.72611928
H        4.43419851       2.47308906      -1.29674951
H        0.89736963       2.70864887      -0.13348995
H        1.49166947       4.32438848       0.25573990
H        1.22654957       3.14225868       1.55295935
H        4.93241799       3.31087880       0.99809963
H        3.80249856       3.55625858       2.14615910
