20
Properties=species:S:1:pos:R:3 atomization_energy=-1914.62 smiles=C.N.C.C.C.C.C.H.H.H.H.H.H.H.H.H.H.H.H.H pbc="F F F"
C        3.10292882      -0.99073963      -0.55554978
N        2.66520903      -0.01714000       0.43342984
C        3.34851880       1.27328951       0.30788987
C        2.64119896       2.28249922       1.21964956
C        4.83880814       1.20729947       0.61148979
C        5.27495767       0.74037971       1.97511925
C        5.75170781       1.56253936      -0.31125988
H        2.49465909      -1.89613919      -0.46307980
H        4.14834832      -1.28199948      -0.41438984
H        2.96980894      -0.61240979      -1.57435944
H        2.79154902      -0.38873986       1.37162944
H        3.20063880       1.63682934      -0.71848972
H        2.64289891       1.96563917       2.26848903
H        1.59558932       2.41031914       0.91646965
H        3.12267879       3.26517883       1.16353954
H        4.91575808      -0.27361988       2.17461904
H        4.89459808       1.40749946       2.75441898
H        6.36627774       0.72057972       2.06975925
H        5.45797808       1.90195921      -1.30016948
H        6.81702716       1.52107944      -0.10573996
