14
Properties=species:S:1:pos:R:3 atomization_energy=-1316.14 smiles=C.C.C.N.C.H.H.H.H.H.H.H.H.H pbc="F F F"
C        0.95789960      -0.00755000       0.00836000
C        2.47127909       0.01867999       0.01037000
C        3.15494868       1.01730961       0.96747961
N        4.17447823      -0.01897999       1.25634951
C        3.19129876      -1.05309958       0.85532966
H        0.58920976      -0.86457968      -0.56401978
H        0.55827975       0.90160967      -0.45184984
H        0.55224979      -0.07902997       1.02279958
H        2.87016888       0.08153997      -1.01244958
H        2.56493890       1.29882947       1.84767923
H        3.54495868       1.92701924       0.50214980
H        4.97791786       0.02908999       0.62885977
H        3.61195869      -1.89306921       0.29540988
H        2.61330903      -1.44836943       1.69909939
