12
Properties=species:S:1:pos:R:3 atomization_energy=-1312.57 smiles=C.C.C.C.C.C.H.H.H.H.H.H pbc="F F F"
C        0.99999962       0.00000000       0.00000000
C        2.44399905       0.00000000       0.00000000
C        3.63415853       0.00000000       0.00000000
C        5.00215781       0.00000000       0.00000000
C        6.19231754       0.00000000       0.00000000
C        7.63631698       0.00000000       0.00000000
H        0.60602978       1.02054961       0.01167999
H        0.60603975      -0.52036979       0.87795967
H        0.60602978      -0.50015979      -0.88965964
H        8.03028681       1.02054961      -0.01167999
H        8.03027672      -0.52036979      -0.87795967
H        8.03028681      -0.50015979       0.88965964
