18
Properties=species:S:1:pos:R:3 atomization_energy=-1771.05 smiles=C.N.C.C.C.C.C.H.H.H.H.H.H.H.H.H.H.H pbc="F F F"
C        1.03899956       0.01689000       0.00147000
N        2.49316908      -0.02027999       0.06960997
C        3.01163890      -1.09355951       0.92508966
C        3.87358860      -0.28169990       1.87903921
C        4.53806814       0.78746971       0.95921961
C        3.03106892       1.17815949       0.75730969
C        2.92807891       0.87749967       2.29468910
H        0.66428973      -0.88623967      -0.49291981
H        0.71048975       0.86990967      -0.60263977
H        0.55563980       0.09066996       0.98137959
H        3.61176868      -1.79748928       0.33944985
H        2.23573922      -1.65084937       1.46317938
H        4.47184834      -0.77695967       2.64119896
H        5.08202822       0.42055984       0.08254997
H        5.16155799       1.53376943       1.46615941
H        2.78591901       2.16516923       0.36690986
H        3.36461879       1.63667932       2.95554895
H        1.95082921       0.60019973       2.70020889
