20
Properties=species:S:1:pos:R:3 atomization_energy=-1911.76 smiles=C.C.C.N.C.C.C.H.H.H.H.H.H.H.H.H.H.H.H.H pbc="F F F"
C        1.33739944      -0.78657967       1.52903935
C        2.46443914      -0.70738974       0.50989981
C        2.96724879       0.72724972       0.34479987
N        4.01089844       0.77137968      -0.68008970
C        4.57083840       2.11458918      -0.84896965
C        5.89527773       2.43461914      -0.21666991
C        5.79440781       2.27882907      -1.70589934
H        0.99775961      -1.82087925       1.63809932
H        0.48252981      -0.18032994       1.21396946
H        1.66859936      -0.43151982       2.50966902
H        2.10181919      -1.09546953      -0.45028983
H        3.28684878      -1.35784950       0.83253967
H        3.36389864       1.08766959       1.30072953
H        2.13426925       1.37938951       0.05736998
H        3.63096857       0.43037982      -1.56287937
H        3.84300858       2.92224879      -0.91095962
H        6.40171767       1.65408930       0.33926988
H        6.03867759       3.43087871       0.18338992
H        5.86811781       3.17076883      -2.31629900
H        6.23712754       1.39616941      -2.15207904
