11
Properties=species:S:1:pos:R:3 atomization_energy=-1162.12 smiles=O.C.C.C.C.N.H.H.H.H.H pbc="F F F"
O        1.76213931      -0.25974989       1.46046947
C        2.37200894      -0.05559998       0.19918992
C        2.91337884       1.33203942       0.18873993
C        4.20673828       1.63645942       0.00000000
C        4.67606810       2.96180878       0.00000000
N        5.06028787       4.04679837       0.00000000
H        1.38573942      -1.15591952       1.45271937
H        1.61726937      -0.17080994      -0.58447975
H        3.15296889      -0.80895969       0.05691998
H        2.18599917       2.12490927       0.35651987
H        4.94281808       0.85572967      -0.15597994
