16
Properties=species:S:1:pos:R:3 atomization_energy=-1621.59 smiles=C.C.C.C.N.C.C.H.H.H.H.H.H.H.H.H pbc="F F F"
C        0.99999962       0.00000000       0.00000000
C        2.44399905       0.00000000       0.00000000
C        3.63415853       0.00000000       0.00000000
C        5.07815797       0.00000000       0.00000000
N        5.57358768      -0.77120967      -1.13362959
C        5.59217793       1.40660949      -0.09903996
C        6.33528743       2.01883918       0.83510966
H        0.60602978       1.02088962       0.01159000
H        0.60593976      -0.52047980       0.87826966
H        0.60601976      -0.50034979      -0.88992963
H        5.44851767      -0.47045980       0.91842963
H        5.14326801      -0.40815985      -1.98186924
H        5.22840811      -1.72430930      -1.03988960
H        5.33755803       1.96118918      -0.99951962
H        6.62543759       1.51613942       1.75223935
H        6.67418748       3.04006882       0.69188972
