18
Properties=species:S:1:pos:R:3 atomization_energy=-1764.35 smiles=C.C.N.C.C.C.C.H.H.H.H.H.H.H.H.H.H.H pbc="F F F"
C        0.92270961      -0.07293997       0.08493997
C        2.44607902      -0.08793997      -0.03868998
N        2.84067893      -0.98234962      -1.12763949
C        2.98418880       1.33188953      -0.27231990
C        4.51362835       1.38972941      -0.31168988
C        4.98344795       2.77787897      -0.44969982
C        5.37113777       3.90966844      -0.56541978
H        0.60908974       0.56388977       0.91911963
H        0.53320982      -1.07963953       0.27304989
H        0.44849982       0.30861989      -0.82636966
H        2.86645885      -0.47903982       0.89527962
H        2.43587903      -0.65716976      -2.00589925
H        2.44874894      -1.91046921      -0.96819964
H        2.62128901       1.98571919       0.53254978
H        2.57541898       1.74229926      -1.20598949
H        4.89811810       0.79738967      -1.14947952
H        4.92582811       0.95688964       0.60727977
H        5.71668776       4.91153808      -0.67038971
