12
Properties=species:S:1:pos:R:3 atomization_energy=-1173.81 smiles=C.C.C.C.N.H.H.H.H.H.H.H pbc="F F F"
C        2.05507924      -0.84904964      -1.13616955
C        2.11409915       0.20395992      -0.30953986
C        3.24689869       1.11380960      -0.16363994
C        3.43204877       2.22255920      -1.16683953
N        2.93753880       2.49916901       0.17597993
H        1.16775953      -1.47211948      -1.17732957
H        2.88479880      -1.10380958      -1.78688935
H        1.24749949       0.40762985       0.31840988
H        4.12938840       0.69338970       0.30777988
H        2.71219892       2.33142903      -1.96864923
H        4.43768824       2.55159890      -1.39463940
H        3.67222851       2.89493898       0.76293971
