16
Properties=species:S:1:pos:R:3 atomization_energy=-1655.38 smiles=C.C.C.C.C.C.N.H.H.H.H.H.H.H.H.H pbc="F F F"
C        2.80945899      -0.83699968      -1.15998950
C        2.46310911       0.00067000       0.06628998
C        3.02738892       1.43281939       0.00000000
C        2.51875900       2.23290907       1.18236951
C        1.75005933       3.32760861       1.08634952
C        4.47138809       1.43281939       0.00000000
N        5.62239763       1.43281939       0.00000000
H        2.32604908      -1.81696925      -1.09365956
H        3.88835856      -1.00474963      -1.24072957
H        2.46564907      -0.35090986      -2.07879914
H        2.82949888      -0.51777980       0.96134960
H        1.36962946       0.04315998       0.15131995
H        2.67155895       1.89853924      -0.92846964
H        2.80514892       1.88389924       2.17407904
H        1.43370949       3.72887864       0.12855995
H        1.42385949       3.85403848       1.97896920
