16
Properties=species:S:1:pos:R:3 atomization_energy=-1605.09 smiles=C.N.C.C.C.C.C.H.H.H.H.H.H.H.H.H pbc="F F F"
C        1.08635961      -0.03871998       0.05918998
N        2.54334893      -0.02029999      -0.00075000
C        3.09103872       1.02419958       0.90336962
C        4.17720845       0.00685000       1.30310952
C        3.12190867      -1.05371956       0.90701965
C        3.61308862      -2.18742914       0.15644994
C        4.01888851      -3.13706874      -0.45724982
H        0.70157974      -0.90214966      -0.49393979
H        0.68275974       0.85932968      -0.42103984
H        0.68538973      -0.08392996       1.07876962
H        2.44389913       1.32543944       1.73771932
H        3.45549867       1.92276922       0.39714984
H        5.07260819       0.04393998       0.66988972
H        4.47946824       0.02033999       2.35331902
H        2.48398901      -1.34202946       1.75452925
H        4.37847821      -3.97726849      -1.00667959
