20
Properties=species:S:1:pos:R:3 atomization_energy=-1913.2 smiles=C.C.N.C.C.C.C.H.H.H.H.H.H.H.H.H.H.H.H.H pbc="F F F"
C        1.02997960       1.00237961      -0.69261971
C        2.35657914       1.07940953       0.04602998
N        3.38199861       1.64345934      -0.82895965
C        4.69148807       1.71816933      -0.17593992
C        5.69861781       0.62927977      -0.42936983
C        5.90160771       1.99251926      -1.03043960
C        6.98231725       2.88688885      -0.52748979
H        0.25457991       0.59605980      -0.03454999
H        1.10286952       0.35100987      -1.57040944
H        0.70144973       1.99299920      -1.02661962
H        2.64544897       0.07379997       0.37115985
H        2.23521916       1.70251936       0.93944964
H        3.08911873       2.56831888      -1.14377961
H        4.69062812       2.16566910       0.81684971
H        5.42196788      -0.17996992      -1.09660957
H        6.32962764       0.32220989       0.39634986
H        5.76067768       2.09497912      -2.10062920
H        7.16728717       2.74876903       0.54290982
H        6.71036724       3.93392857      -0.69312974
H        7.91567695       2.68783886      -1.06254964
