10
Properties=species:S:1:pos:R:3 atomization_energy=-1023.89 smiles=N.C.O.C.C.H.H.H.H.H pbc="F F F"
N        1.02651957      -0.01238000       0.24512989
C        2.27951919      -0.00732000      -0.28036990
O        2.80872899      -1.02327958      -0.70617974
C        2.92090891       1.32663953      -0.28276988
C        4.15775826       1.48165937      -0.77152969
H        0.56013975       0.80642969       0.60503976
H        0.54068980      -0.89906964       0.27170989
H        2.37172911       2.16896908       0.11672995
H        4.71681809       0.64091975      -1.17485950
H        4.63759819       2.45390911      -0.77847971
