13
Properties=species:S:1:pos:R:3 atomization_energy=-1311.86 smiles=C.N.C.C.C.O.H.H.H.H.H.H.H pbc="F F F"
C        1.18157959      -0.03459998       0.26097989
N        2.61639908      -0.05577998       0.29684987
C        3.48519856       1.06911959      -0.07652997
C        4.51723820       0.01985000      -0.53077981
C        3.34412874      -0.96781963      -0.41266983
O        3.06911870      -2.06490919      -0.83502967
H        0.79744966      -1.03601959       0.47471981
H        0.84639966       0.26349990      -0.73700970
H        0.81687968       0.67294973       1.00907957
H        3.78466858       1.68403938       0.77526968
H        3.06710889       1.69191931      -0.87352968
H        4.90137822       0.14952994      -1.54433934
H        5.33184778      -0.18018992       0.16997994
