19
Properties=species:S:1:pos:R:3 atomization_energy=-1783.05 smiles=C.C.N.C.C.C.N.H.H.H.H.H.H.H.H.H.H.H.H pbc="F F F"
C        1.01066957       0.53967978       0.45508983
C        2.50483889       0.57458975       0.73480969
N        3.17183872       1.45741941      -0.22125991
C        4.62519812       1.50180941      -0.01934999
C        5.51592797       0.66216976      -0.89016966
C        5.49057776       2.14966928      -1.07570960
N        6.64975727       2.95253889      -0.68345971
H        0.50648980      -0.10342996       1.18321949
H        0.80520967       0.14375994      -0.54481977
H        0.56881976       1.53905943       0.52667980
H        2.90884874      -0.44145981       0.65963977
H        2.67153901       0.93021962       1.75839925
H        2.77371879       2.39410912      -0.15288994
H        4.94053801       1.64251941       1.01240959
H        5.05706812       0.05509998      -1.66245938
H        6.38892750       0.20798992      -0.43902983
H        4.98959828       2.50795897      -1.97319927
H        7.11804725       2.56083902       0.13218995
H        6.35632731       3.89208852      -0.41770982
