18
Properties=species:S:1:pos:R:3 atomization_energy=-1773.13 smiles=N.C.C.C.C.C.C.H.H.H.H.H.H.H.H.H.H.H pbc="F F F"
N        0.82271969      -0.31202987       0.07818997
C        2.21086919      -0.40440985      -0.36308986
C        2.53860889      -0.05717998      -1.78678930
C        2.95592896       0.86772966      -0.67028973
C        4.40451829       1.01078962      -0.30892988
C        4.64420826       1.15866955       1.16779953
C        5.40199788       0.32689987       1.89452919
H        0.78015967      -0.12151995       1.07914963
H        0.34010986      -1.20007951      -0.06087997
H        2.78134878      -1.21429951       0.08730997
H        1.73348937       0.26840990      -2.43623911
H        3.29483860      -0.64917975      -2.28779919
H        2.41915906       1.80575931      -0.57267979
H        4.79921787       1.90254929      -0.81028967
H        4.97891810       0.16143993      -0.70051970
H        4.16174837       2.00140927       1.65909934
H        5.90308789      -0.52621981       1.44743946
H        5.53625779       0.48553981       2.96031877
