19
Properties=species:S:1:pos:R:3 atomization_energy=-1919.85 smiles=C.C.C.C.C.C.C.H.H.H.H.H.H.H.H.H.H.H.H pbc="F F F"
C        0.81115970       0.03052999       0.11077996
C        2.14623908       0.07860997       0.20673992
C        3.01120893       1.30895944       0.17399994
C        2.31381908       2.67014892       0.13496994
C        3.44076858       3.63621857       0.46880981
C        4.28307832       2.90780888       1.51224936
C        3.90251838       1.42908943       1.41615947
H        0.29088987      -0.92229964       0.14021995
H        0.20186992       0.92075966      -0.00195000
H        2.68139886      -0.86559967       0.30520989
H        3.65972853       1.22807957      -0.70974972
H        1.52806939       2.74254882       0.89695965
H        1.86878926       2.88565874      -0.84132969
H        4.04546833       3.82891840      -0.42566984
H        3.06911870       4.59837834       0.83379968
H        5.35107794       3.06130880       1.32594953
H        4.06859852       3.28572869       2.51806913
H        4.79020813       0.79151969       1.34014947
H        3.36285878       1.13024961       2.32387903
