13
Properties=species:S:1:pos:R:3 atomization_energy=-1296.55 smiles=C.O.C.C.C.N.H.H.H.H.H.H.H pbc="F F F"
C        1.00498960      -0.03230999       0.00590000
O        2.42681908       0.01608000      -0.00099000
C        2.90887877       1.36106950       0.00304000
C        4.43076831       1.33088942      -0.00537000
C        4.97519823       2.68979897      -0.00189000
N        5.39580769       3.77109846       0.00093000
H        0.69645976      -1.08110961       0.00270000
H        0.60140979       0.45410981      -0.88729965
H        0.61033979       0.44600982       0.90742963
H        2.54046907       1.87739931       0.89811968
H        2.53080908       1.88622926      -0.88281963
H        4.78406790       0.78009968      -0.88494962
H        4.79357827       0.77177969       0.86502965
