20
Properties=species:S:1:pos:R:3 atomization_energy=-1914.16 smiles=C.C.C.C.C.N.C.H.H.H.H.H.H.H.H.H.H.H.H.H pbc="F F F"
C        2.62315904      -1.50909938       0.95512963
C        3.62916869      -0.81939971       0.04674998
C        3.22725874       0.59876977      -0.24058991
C        3.97152845       1.66696929       0.08755997
C        3.58672858       3.08723886      -0.19152993
N        4.61416822       3.70268843      -1.02625961
C        4.29885811       5.09859780      -1.29410949
H        2.93070895      -2.54241909       1.14306955
H        1.62762934      -1.53074940       0.49970982
H        2.54613896      -0.99743959       1.92005919
H        3.69719845      -1.36452947      -0.90195965
H        4.62193801      -0.86066968       0.51091979
H        2.27944905       0.73922971      -0.75567969
H        4.92140827       1.52686943       0.60043976
H        3.50811857       3.61544868       0.76610968
H        2.60886902       3.13733873      -0.68491970
H        4.65864816       3.19444887      -1.90910927
H        4.26404851       5.68145778      -0.36770985
H        3.34337881       5.20267789      -1.81897932
H        5.07888821       5.53359771      -1.92693925
