15
Properties=species:S:1:pos:R:3 atomization_energy=-1515.86 smiles=C.C.N.C.C.C.N.H.H.H.H.H.H.H.H pbc="F F F"
C        3.08638876      -1.09668955      -0.55412979
C        2.49593892       0.16322994       0.06207998
N        3.50438861       1.22591949       0.07348997
C        3.41925860       2.13756924      -1.05981954
C        2.93125878       2.55915900       0.31028989
C        3.68576861       3.54796849       1.03166959
N        4.27116829       4.37142808       1.60439934
H        2.35065919      -1.90709920      -0.53155976
H        3.97111841      -1.43138943      -0.00184000
H        3.37450866      -0.93160965      -1.59775937
H        2.20055919      -0.05397998       1.09530955
H        1.58146937       0.43531983      -0.48115981
H        2.68646895       1.94484922      -1.83400931
H        4.36676853       2.52211904      -1.42098947
H        1.85762928       2.61658909       0.45549981
