13
Properties=species:S:1:pos:R:3 atomization_energy=-1291.64 smiles=C.C.O.C.C.N.H.H.H.H.H.H.H pbc="F F F"
C        2.14058913      -0.46527982      -1.60590942
C        2.57347905      -0.07794997      -0.21942991
O        2.29115898      -0.75118971       0.76709970
C        3.41780871       1.13784957      -0.05603998
C        3.80941849       2.06436920      -1.17682958
N        2.70439885       2.40504895      -0.29396989
H        3.01760881      -0.63326976      -2.23514901
H        1.50609941       0.31380988      -2.03422924
H        1.56382940      -1.39343944      -1.55926939
H        4.06393847       1.11569956       0.81516969
H        3.54442853       1.82623927      -2.19838914
H        4.71518803       2.64986906      -1.06859953
H        2.97665873       3.09275886       0.41104982
