12
Properties=species:S:1:pos:R:3 atomization_energy=-1122.73 smiles=N.C.C.C.O.H.H.H.H.H.H.H pbc="F F F"
N        1.01200958      -0.06758997      -0.11593995
C        2.46936894      -0.02587999      -0.01280999
C        3.28789873      -0.70564972      -1.07138956
C        3.26368881       0.79316968      -0.99809963
O        4.44715824       1.43067949      -0.49266981
H        0.59616975       0.71880974       0.38378985
H        0.64043976      -0.91014964       0.32137988
H        2.85025894      -0.06897997       1.00477960
H        2.77124897      -1.17127956      -1.90345919
H        4.18549829      -1.22827955      -0.76667970
H        2.71426904       1.31906947      -1.77302929
H        4.95504807       0.85410964       0.10194996
