21
Properties=species:S:1:pos:R:3 atomization_energy=-2063.19 smiles=C.C.C.C.C.C.C.H.H.H.H.H.H.H.H.H.H.H.H.H.H pbc="F F F"
C       -1.52352945       0.75542970       0.13872994
C       -1.52759942      -0.74989973      -0.10430996
C       -0.30038989      -1.49780945       0.41405982
C        0.94825960      -1.23455956      -0.42194984
C        1.74817934       0.00148000      -0.02192999
C        0.95947964       1.23951951       0.39397984
C       -0.30931990       1.50196938      -0.41132985
H       -2.42485897       1.17395956      -0.32657989
H       -1.61944939       0.95013959       1.21420955
H       -1.65141938      -0.94422962      -1.17701959
H       -2.41726910      -1.16725954       0.38396986
H       -0.12342995      -1.27798943       1.47312943
H       -0.52387978      -2.57074908       0.35230985
H        1.61589934      -2.10172911      -0.33970988
H        0.67885971      -1.16920955      -1.48360938
H        2.42041895      -0.26232990       0.80458969
H        2.40426899       0.26327989      -0.86189967
H        0.71672971       1.17732957       1.46211946
H        1.62611939       2.10566914       0.29306989
H       -0.53037980       2.57512904      -0.34581986
H       -0.15858994       1.28029953      -1.47409940
