17
Properties=species:S:1:pos:R:3 atomization_energy=-1781.25 smiles=C.C.C.C.C.C.C.H.H.H.H.H.H.H.H.H.H pbc="F F F"
C        1.03853956      -0.00264000       0.08291997
C        2.37650902      -0.00488000       0.03513999
C        3.24866880       1.21981951       0.03783999
C        4.42767826       0.82290970      -0.84980966
C        4.55011797      -0.66504975      -0.65666976
C        5.67010792      -1.37489940      -0.84207968
C        3.24165878      -1.21975958      -0.16064995
H        0.47133981      -0.92661961       0.02566999
H        0.47959980       0.92317964       0.17650993
H        3.59353850       1.42214943       1.05904955
H        2.74226898       2.11152915      -0.34417986
H        4.19725845       1.03823960      -1.90009928
H        5.33650782       1.36476943      -0.57032977
H        5.69458758      -2.44516911      -0.66199976
H        6.58613750      -0.90298967      -1.18355951
H        2.80389887      -1.90317923      -0.89522967
H        3.38556859      -1.73595931       0.79463970
