14
Properties=species:S:1:pos:R:3 atomization_energy=-1384.76 smiles=C.N.N.C.C.C.N.H.H.H.H.H.H.H pbc="F F F"
C        1.48378942      -0.45886981      -0.95334963
N        2.79816893      -0.31390986      -0.32949986
N        3.21532877       0.96847960      -0.16746994
C        4.49172801       1.12374956       0.01714000
C        5.55417785       0.07088997       0.06088998
C        4.87040809       2.50929910       0.18502992
N        5.21912787       3.60789868       0.33109986
H        1.24308950      -1.52017937      -1.06512960
H        1.47648948      -0.00409000      -1.94887920
H        0.70625973       0.01048000      -0.34245985
H        2.75934903      -0.79515969       0.57459978
H        5.33197797      -0.64523972       0.85713970
H        6.53606741       0.51299979       0.25180989
H        5.58689765      -0.45697982      -0.89652967
