13
Properties=species:S:1:pos:R:3 atomization_energy=-1251.48 smiles=C.C.C.O.N.C.H.H.H.H.H.H.H pbc="F F F"
C        0.39876984       0.03215999      -0.14667994
C        1.63129937      -0.23071991       0.30820989
C        2.76865879       0.74573973       0.31015987
O        3.89199843       0.12157995      -0.31498987
N        4.99293813       0.98976961      -0.23427990
C        6.01323755       0.40886984      -0.76760973
H       -0.37733985      -0.72643973      -0.11558995
H        0.13625995       1.00219964      -0.55688978
H        1.84781927      -1.21640951       0.71288974
H        3.02350882       0.99991963       1.34496950
H        2.51465912       1.66250934      -0.23457991
H        6.98374747       0.92759967      -0.80480966
H        5.97010758      -0.60554979      -1.19904949
