12
Properties=species:S:1:pos:R:3 atomization_energy=-1119.26 smiles=O.C.C.N.C.H.H.H.H.H.H.H pbc="F F F"
O        0.91435965       0.01106000      -0.01130000
C        2.35659907       0.02001999      -0.00830000
C        3.04783885       1.02504962       0.93869966
N        4.04841833      -0.01597999       1.27299946
C        3.07123879      -1.04527958       0.85187966
H        0.67119976      -0.79867971      -0.49134980
H        2.74279887       0.06976997      -1.03520961
H        2.43877908       1.33839943       1.79458923
H        3.46227856       1.91592928       0.45820981
H        4.87884806       0.02194999       0.68160974
H        3.50400859      -1.88349929       0.29848990
H        2.46981910      -1.44264946       1.67743940
