21
Properties=species:S:1:pos:R:3 atomization_energy=-1934.31 smiles=C.C.C.C.N.C.N.H.H.H.H.H.H.H.H.H.H.H.H.H.H pbc="F F F"
C        0.96294963      -0.05240998       0.15892995
C        2.45164898      -0.11099996      -0.16894994
C        3.22343869       1.23402955      -0.07005997
C        2.62821903       2.28992912      -1.01385961
N        3.16572877       1.75617937       1.31304947
C        4.72054805       1.00322959      -0.45918983
N        5.46011785       0.22119992       0.54326976
H        0.52529980      -1.05220961       0.06582997
H        0.42295983       0.60494974      -0.52810980
H        0.78603969       0.28856988       1.18294950
H        2.55686909      -0.50914981      -1.18672955
H        2.91068874      -0.85392966       0.49611980
H        2.61806901       1.92797923      -2.04798924
H        3.21373883       3.21676883      -0.99351963
H        1.60097937       2.55434906      -0.74146972
H        3.43771865       0.99645960       1.93924923
H        2.20116907       1.97798927       1.55418934
H        5.23027788       1.96819920      -0.57268976
H        4.78297834       0.49049982      -1.42591939
H        5.45985794       0.77237967       1.40346948
H        6.43638748       0.16627993       0.25640989
