15
Properties=species:S:1:pos:R:3 atomization_energy=-1405.02 smiles=C.O.C.C.N.C.H.H.H.H.H.H.H.H.H pbc="F F F"
C        2.06475918      -0.50593982      -1.36968951
O        2.29357909       0.03790999      -0.07842997
C        3.07855867       1.25148948      -0.04191998
C        2.38813896       2.56511906      -0.47157980
N        3.05896868       3.26046881       0.65189976
C        3.19815864       1.94919929       1.33097950
H        1.47884941      -1.42249942      -1.26297951
H        3.01697874      -0.74757973      -1.85067932
H        1.50404935       0.20332991      -1.98506918
H        4.05826834       1.10278953      -0.51678981
H        1.29492944       2.55504903      -0.38920986
H        2.66093883       2.93727890      -1.46343941
H        3.95525839       3.67424867       0.39344985
H        4.15014845       1.80640931       1.85054924
H        2.38137901       1.72892936       2.02818919
