17
Properties=species:S:1:pos:R:3 atomization_energy=-1667.73 smiles=C.C.C.C.N.C.N.H.H.H.H.H.H.H.H.H.H pbc="F F F"
C        1.09462952      -0.59264979       0.00037000
C        2.39210915       0.12904995       0.19145992
C        2.62155900       1.45899939       0.21200992
C        1.51389935       2.47959895       0.08132997
N        3.91672842       1.93989924       0.37422984
C        4.38885811       3.21552861       0.39993984
N        5.61834771       3.56434857       0.55216980
H        1.23806949      -1.41055948      -0.71306971
H        0.29438989       0.03515999      -0.39462984
H        0.76628971      -1.02568959       0.94979964
H        3.23788870      -0.54629976       0.31545987
H        0.51300979       2.04389920       0.06137998
H        1.63929941       3.05810873      -0.83997965
H        1.53043941       3.16798865       0.93351961
H        4.61538799       1.21439956       0.47454980
H        3.62376855       3.99821854       0.27430988
H        6.21101731       2.73885898       0.65581972
