16
Properties=species:S:1:pos:R:3 atomization_energy=-1656.91 smiles=N.C.C.C.C.C.C.H.H.H.H.H.H.H.H.H pbc="F F F"
N        0.96518964      -0.00989000      -0.28568989
C        2.40672897      -0.00412000      -0.07907997
C        2.79581897       1.25692949       0.64329974
C        3.41954853       1.27001955       1.83370928
C        3.78466858       0.02039999       2.58467903
C        3.42861858      -1.24338952       1.85236931
C        2.80432884      -1.25163949       0.66120971
H        0.71230969      -0.83075966      -0.82942969
H        0.70923970       0.79321971      -0.85381964
H        2.90733879      -0.00961000      -1.05437959
H        2.56141888       2.20073910       0.16034994
H        3.67026865       2.21864907       2.30022903
H        4.86393832       0.02515999       2.77597892
H        3.27575883       0.02523999       3.55367849
H        3.68587862      -2.18298911       2.33166900
H        2.57690899      -2.20410924       0.19206993
