9
Properties=species:S:1:pos:R:3 atomization_energy=-1006.35 smiles=O.C.C.C.C.H.H.H.H pbc="F F F"
O       -0.35665985      -1.08495955      -0.00427000
C       -1.13860960       0.02519999      -0.00218000
C       -0.36176985       1.15961958       0.00108000
C        0.98321959       0.71705970       0.00098000
C        0.93255962      -0.65820974      -0.00233000
H       -2.20464923      -0.15432994      -0.00336000
H       -0.72138970       2.17935907       0.00326000
H        1.87879924       1.32130954       0.00306000
H        1.68237929      -1.43630938      -0.00365000
