17
Properties=species:S:1:pos:R:3 atomization_energy=-1635.47 smiles=C.C.C.C.C.N.N.H.H.H.H.H.H.H.H.H.H pbc="F F F"
C        0.99408958       0.08614997       0.09169996
C        2.49028897       0.11439996      -0.20664992
C        2.93158883      -0.59103979      -1.46679945
C        2.15846908      -1.03431957      -2.46728897
C        2.93552873       1.55586936      -0.33771987
N        3.85382854       2.04192925       0.43769982
N        4.12520828       3.34212876       0.17982992
H        0.78511968       0.59043975       1.04228958
H        0.62623975      -0.94265961       0.17091994
H        0.41170983       0.60361977      -0.67928975
H        3.01764893      -0.34423986       0.63882976
H        4.00854848      -0.74759973      -1.54899938
H        1.08010962      -0.91685963      -2.47205904
H        2.60306893      -1.53035943      -3.32595862
H        2.44326906       2.16397923      -1.12143959
H        4.97725826       3.61203867       0.67898972
H        3.39707869       3.94792842       0.56805979
