16
Properties=species:S:1:pos:R:3 atomization_energy=-1614.03 smiles=C.C.C.C.C.C.H.H.H.H.H.H.H.H.H.H pbc="F F F"
C        2.12511921      -0.77498972      -1.16750960
C        2.88916892      -0.25383990       0.03957998
C        3.01429873       1.24181951       0.00540000
C        4.18915836       1.88953921      -0.04438998
C        4.28627839       3.32895858      -0.06890997
C        5.45476792       3.97895835      -0.11743995
H        2.03302915      -1.86454921      -1.11464961
H        2.64054895      -0.52382978      -2.10054921
H        1.11540950      -0.35292986      -1.21115950
H        3.87526837      -0.73130973       0.07560997
H        2.36148900      -0.54089981       0.95615965
H        2.08337920       1.80343925       0.03466999
H        5.11772805       1.32360954      -0.06813997
H        3.36249871       3.90317848      -0.04599998
H        6.40616728       3.45738863      -0.14174994
H        5.48050772       5.06398805      -0.13400994
