17
Properties=species:S:1:pos:R:3 atomization_energy=-1646.58 smiles=C.C.C.C.C.N.N.H.H.H.H.H.H.H.H.H.H pbc="F F F"
C        1.01280960       0.05567998      -0.08188997
C        2.51360892      -0.07901997      -0.02299999
C        3.00197891      -1.49637936      -0.14111994
C        3.27781861       1.01826960       0.12251995
C        4.75642804       1.04610956       0.18545993
N        5.39470803       2.16369915       0.34479987
N        6.73825742       2.00920921       0.38432984
H        0.68397970       1.09726953       0.00017000
H        0.54919980      -0.50400980       0.73728972
H        0.63376975      -0.33780986      -1.03098962
H        2.55379898      -2.11377919       0.64491977
H        4.08448833      -1.59974938      -0.05104998
H        2.71192892      -1.91283923      -1.11159955
H        2.82498897       2.00395920       0.20090992
H        5.28594771       0.08470997       0.08636997
H        7.18117699       2.93098879       0.34895987
H        7.02937703       1.61542938       1.28267952
