17
Properties=species:S:1:pos:R:3 atomization_energy=-1651.96 smiles=N.C.C.C.C.N.C.H.H.H.H.H.H.H.H.H.H pbc="F F F"
N        1.07540958      -0.02768999       0.54242981
C        2.45977909      -0.02981999       0.04491998
C        2.80208890      -1.36713945      -0.61055976
C        2.58536890      -1.12046950      -2.07077917
C        3.62432847      -0.40968985      -2.88832891
N        2.47221902       0.32248988      -2.37271900
C        2.69562883       1.00212961      -1.08032953
H        0.82908967       0.90036965       0.88290965
H        0.98616960      -0.66948971       1.32784946
H        3.12175879       0.16800994       0.89459966
H        2.18884926      -2.19620925      -0.24013990
H        3.85074858      -1.62698930      -0.42399984
H        1.84974923      -1.75681928      -2.54137898
H        4.59884818      -0.20662992      -2.46233899
H        3.62718864      -0.58003979      -3.95874838
H        3.71644855       1.40105946      -1.02048961
H        2.02013919       1.86065927      -0.98801962
