20
Properties=species:S:1:pos:R:3 atomization_energy=-1920.8 smiles=C.C.C.C.C.C.N.H.H.H.H.H.H.H.H.H.H.H.H.H pbc="F F F"
C        2.48306901      -0.32672987       1.39559939
C        2.53646912       0.24894991      -0.01255999
C        2.78639894       1.74424928      -0.01002000
C        1.55923937       2.59170898       0.18715993
C        4.03786836       2.21517901      -0.18989993
C        4.50970813       3.63282850      -0.22672992
N        5.47753779       3.83893847       0.84111969
H        2.30525900      -1.40590939       1.35433945
H        1.67895932       0.12446996       1.98492926
H        3.42776872      -0.16144994       1.92431929
H        1.59871937       0.03233999      -0.53835978
H        3.32197860      -0.26965988      -0.57669975
H        0.83176968       2.38773902      -0.60605975
H        1.76127936       3.66433861       0.17039993
H        1.09045962       2.36546902       1.15016952
H        4.84168825       1.49096938      -0.32803988
H        3.70129859       4.35993843      -0.12702995
H        4.99432797       3.81896847      -1.19116957
H        5.00643785       3.70085852       1.73444936
H        5.77975796       4.81090788       0.83000967
