13
Properties=species:S:1:pos:R:3 atomization_energy=-1402.19 smiles=C.C.N.C.C.C.N.H.H.H.H.H.H pbc="F F F"
C        2.61861909      -1.12897950       0.35916986
C        2.17714916       0.12221995       0.16963994
N        2.98463870       1.26326956       0.11026996
C        2.49846904       2.54923910      -0.08757997
C        3.56534856       3.41163870      -0.08962996
C        4.67499823       2.58436891       0.11236995
N        4.34340820       1.29994945       0.23334991
H        1.93008923      -1.96586917       0.39368984
H        3.67716865      -1.34013950       0.48343981
H        1.11478953       0.30600987       0.04824998
H        1.43878942       2.72154905      -0.20735991
H        3.54234856       4.48357822      -0.21869992
H        5.71952750       2.86134889       0.17753993
