13
Properties=species:S:1:pos:R:3 atomization_energy=-1345.67 smiles=C.C.N.N.C.C.C.H.H.H.H.H.H pbc="F F F"
C        0.89328968       0.08174997      -0.07053998
C        2.38845918       0.07176997      -0.06926998
N        3.05789879       1.06233957       0.42380984
N        4.42755816       0.82905971       0.31402988
C        5.09660792       1.81255926       0.80350971
C        6.51443757       1.61293937       0.71058974
C        7.70296675       1.45141948       0.63557973
H        0.53348978      -0.78501970       0.48967981
H        0.54010975       0.00290000      -1.10185957
H        0.50657979       0.99822958       0.38157983
H        2.88427874      -0.81378969      -0.50553981
H        4.68388836       2.72759895       1.25463945
H        8.75566651       1.29925944       0.56462980
