19
Properties=species:S:1:pos:R:3 atomization_energy=-1781.04 smiles=C.C.C.C.C.N.N.H.H.H.H.H.H.H.H.H.H.H.H pbc="F F F"
C        3.07867878      -0.91515967      -0.77826971
C        2.66929907       0.01053999       0.36013985
C        3.06556891       1.46972939       0.10538996
C        2.49010906       2.38401915       1.18343953
C        4.57104834       1.61297937       0.12012995
N        5.19749803       2.06406918      -0.91952967
N        6.53568740       2.12723905      -0.73953970
H        2.72645891      -1.93264925      -0.58066980
H        4.16661836      -0.95448960      -0.89036964
H        2.64551887      -0.58515978      -1.72786932
H        3.12125867      -0.35207985       1.29155943
H        1.58157939      -0.05571998       0.48423980
H        2.68539906       1.79289925      -0.87144965
H        2.85417890       2.10722918       2.17928918
H        1.39636951       2.33547920       1.19410948
H        2.78102883       3.42519873       1.00546960
H        5.09691778       1.31453949       1.04710961
H        6.98612746       2.28278915      -1.64567935
H        6.78480749       2.95245890      -0.18774993
