17
Properties=species:S:1:pos:R:3 atomization_energy=-1663.75 smiles=C.C.N.C.N.C.C.H.H.H.H.H.H.H.H.H.H pbc="F F F"
C        1.87147924      -0.54256980      -0.50889978
C        3.29707880      -0.35497986      -0.01703999
N        3.94447854       0.70756971      -0.76531969
C        5.24134816       1.11285957      -0.56402975
N        6.14910733       0.34025987      -0.05510998
C        5.71583791       2.48246897      -0.92153962
C        4.97836802       3.41845871      -1.53096943
H        1.37514946      -1.33829951       0.05534998
H        1.85619932      -0.81356966      -1.57011939
H        1.28784953       0.37645985      -0.38935984
H        3.83684841      -1.29935949      -0.14248995
H        3.28723863      -0.10282996       1.04887959
H        3.30947861       1.45847946      -1.00866960
H        5.75471761      -0.58181980       0.12188995
H        6.74949726       2.68715882      -0.65547977
H        3.95249839       3.26591866      -1.83823926
H        5.41767775       4.38624850      -1.75365934
