14
Properties=species:S:1:pos:R:3 atomization_energy=-1313.49 smiles=C.N.C.C.C.H.H.H.H.H.H.H.H.H pbc="F F F"
C        1.06809954      -0.00381000       0.06789998
N        2.52287907       0.03036999      -0.02044999
C        3.08220889       1.02994957       0.92637964
C        4.17398845      -0.00465000       1.26148949
C        3.12451879      -1.04182959       0.81453968
H        0.68109972      -0.85503967      -0.50294981
H        0.64606977       0.90424962      -0.37626984
H        0.68859970      -0.08502996       1.09393952
H        2.44685897       1.29023949       1.78286933
H        3.44136862       1.95162923       0.45944983
H        5.05632778       0.04815998       0.61306976
H        4.49130814      -0.05429998       2.30544900
H        3.52035866      -1.89252922       0.25251990
H        2.50354898      -1.41819944       1.63750937
