14
Properties=species:S:1:pos:R:3 atomization_energy=-1418.37 smiles=C.N.C.N.C.C.N.H.H.H.H.H.H.H pbc="F F F"
C        1.15475956      -0.41985984       0.25781990
N        2.52670895      -0.15365994      -0.13678994
C        3.10880890       1.09850962      -0.13732995
N        2.28654914       2.18527902      -0.30083989
C        4.44678832       1.20939949       0.00000000
C        5.14978774       2.42703911       0.00000000
N        5.72528772       3.42383866       0.00000000
H        0.95847965      -1.49453936       0.19469992
H        0.44413982       0.08599996      -0.40317983
H        0.97905959      -0.10031996       1.29009944
H        3.15971875      -0.89909967       0.14554994
H        1.51210944       1.96469923      -0.91954967
H        2.75578889       3.04026891      -0.58958977
H        5.05344817       0.31951988       0.11518995
