13
Properties=species:S:1:pos:R:3 atomization_energy=-1364.49 smiles=C.C.N.C.N.C.C.H.H.H.H.H.H pbc="F F F"
C        0.80514968       0.10118996       0.06736997
C        2.13803908      -0.01125000       0.02196999
N        2.89735884      -1.15588949      -0.01407000
C        2.51556903      -2.45928906      -0.00812999
N        3.29841868      -3.47979867      -0.04861998
C        2.93094892       1.17427952       0.00600000
C        3.60284852       2.17032915      -0.00762000
H        0.32128989       1.07322956       0.09218997
H        0.15284995      -0.76372969       0.08065996
H        3.89479855      -0.98343962      -0.05148998
H        1.42676949      -2.62245907       0.03642998
H        4.27435826      -3.17981870      -0.08786997
H        4.19296831       3.05738883      -0.01874999
