15
Properties=species:S:1:pos:R:3 atomization_energy=-1429.46 smiles=C.C.N.C.C.O.H.H.H.H.H.H.H.H.H pbc="F F F"
C        1.74002929      -0.95582960       0.44408983
C        3.19046884      -0.50939981       0.34344987
N        3.25362862       0.85328969      -0.18635993
C        4.64653829       1.30867948      -0.27311988
C        4.66616815       2.70111905      -0.86611966
O        5.13673818       3.67815855      -0.28900988
H        1.68621939      -1.97590918       0.83799968
H        1.25423951      -0.94741965      -0.53757976
H        1.16924955      -0.30521989       1.11539953
H        3.72958845      -1.19820948      -0.31672988
H        3.65059867      -0.55755979       1.33717954
H        2.74257884       1.47654941       0.44306981
H        5.23349813       0.66240973      -0.93412962
H        5.11711791       1.33792946       0.71539974
H        4.24665834       2.79157879      -1.88311928
