16
Properties=species:S:1:pos:R:3 atomization_energy=-1622.39 smiles=C.C.N.C.C.C.C.H.H.H.H.H.H.H.H.H pbc="F F F"
C        0.85532966      -0.17456993      -0.12586995
C        2.36990904      -0.04755998       0.02945999
N        3.05078886      -0.78083971      -1.03293958
C        2.79394895       1.39012948      -0.01692000
C        3.37404867       2.03182919       1.00832958
C        3.74659860       3.39867872       0.91150964
C        4.06359833       4.55451812       0.83387967
H        0.33573986       0.35622985       0.67994972
H        0.54464977      -1.22467954      -0.08425996
H        0.50639981       0.24146991      -1.07848953
H        2.65883893      -0.49547980       0.98786962
H        2.70781895      -0.46719981      -1.93938928
H        2.80411890      -1.76724927      -0.97111962
H        2.60762906       1.92891929      -0.94339964
H        3.57867871       1.51770943       1.94266920
H        4.34675815       5.57838803       0.76288968
