15
Properties=species:S:1:pos:R:3 atomization_energy=-1416.05 smiles=N.C.C.C.O.C.H.H.H.H.H.H.H.H.H pbc="F F F"
N        2.24765909      -0.45002983      -1.39695946
C        2.38550917       0.04250998      -0.02944999
C        3.16816881       1.34076945      -0.01140000
C        2.43907910       2.60227888      -0.48840980
O        2.77894886       3.30473882       0.73557974
C        3.21606886       2.06359921       1.33996944
H        1.69750933      -1.30915953      -1.39226950
H        3.16323877      -0.71013971      -1.76362933
H        2.89835882      -0.71542970       0.57320975
H        1.38678950       0.18039993       0.40059984
H        4.16807835       1.23777956      -0.45246981
H        1.35332949       2.52649901      -0.60632974
H        2.87376889       3.08712885      -1.36712949
H        4.21187826       2.15646910       1.78257928
H        2.50458908       1.72646926       2.10069922
