22
Properties=species:S:1:pos:R:3 atomization_energy=-2058.97 smiles=C.C.N.C.C.C.C.H.H.H.H.H.H.H.H.H.H.H.H.H.H.H pbc="F F F"
C        1.82271925       0.66700973       0.04872998
C        3.01365882       1.46679945       0.56071980
N        4.19639825       1.12920950      -0.22692990
C        5.44695776       1.81265931       0.15336994
C        5.86636764       1.47417938       1.59364940
C        6.53365764       1.28429948      -0.80369966
C        5.34570783       3.33720880      -0.01936999
H        0.92791962       0.90969967       0.63190976
H        2.00106925      -0.40950985       0.13758994
H        1.61107931       0.89568966      -1.00152963
H        3.15861884       1.22308947       1.61704934
H        2.77444878       2.53192892       0.48064982
H        4.00233835       1.30285945      -1.21363954
H        5.18125799       1.90246930       2.33253904
H        6.86385732       1.87189924       1.81345933
H        5.90271747       0.39049984       1.75329926
H        6.29461768       1.51364942      -1.84899930
H        6.64854760       0.19728992      -0.71760972
H        7.50755688       1.73643937      -0.58377978
H        5.00570811       3.60257852      -1.02701957
H        6.32067745       3.81359861       0.13442995
H        4.65220817       3.78542860       0.70001971
