21
Properties=species:S:1:pos:R:3 atomization_energy=-1930.47 smiles=C.C.C.C.N.C.N.H.H.H.H.H.H.H.H.H.H.H.H.H.H pbc="F F F"
C        2.85112897      -0.75592969      -1.06671954
C        2.47439891       0.02560999       0.18514992
C        3.07561876       1.45114949       0.24397990
C        2.55043894       2.21241901       1.48316944
N        1.09346955       2.35921903       1.47148941
C        4.61904831       1.40088939       0.25734990
N        5.22224769       2.73215882       0.24063990
H        2.27950910      -1.68889928      -1.11076951
H        3.91125838      -1.02457958      -1.07221960
H        2.63028891      -0.18109993      -1.97151925
H        2.78067884      -0.54580980       1.06988958
H        1.38022952       0.08604996       0.21334991
H        2.75543891       1.99329922      -0.65721972
H        2.98657888       3.21584883       1.53237934
H        2.84283888       1.68445938       2.39798897
H        0.81924970       2.90000882       0.65233976
H        0.81209970       2.91139880       2.28087900
H        4.99272819       0.86061966      -0.61763974
H        4.96847815       0.86453969       1.14669959
H        4.96245803       3.21197882      -0.62081974
H        6.23753733       2.63960902       0.21589992
