18
Properties=species:S:1:pos:R:3 atomization_energy=-1754.03 smiles=C.C.C.C.C.C.H.H.H.H.H.H.H.H.H.H.H.H pbc="F F F"
C        0.91817963       0.06398998      -0.02381999
C        2.41926907      -0.16510993       0.06425997
C        3.19351877       1.14452954      -0.10060996
C        4.68961830       0.95228965       0.00639000
C        5.37318771       0.29174988      -1.15769959
C        5.38009805       1.38245950       1.07533955
H        0.38223984      -0.88185964       0.10566996
H        0.64171977       0.47971982      -0.99873961
H        0.57887976       0.75557971       0.75391968
H        2.71133897      -0.88274968      -0.71022972
H        2.65602897      -0.62059977       1.03268958
H        2.85137878       1.86060931       0.65895973
H        2.96056882       1.60095931      -1.07118959
H        5.01639787      -0.73439971      -1.28521948
H        6.45946721       0.24924990      -1.02467957
H        5.17462774       0.84771966      -2.07956913
H        4.88819795       1.87065928       1.91141924
H        6.45620759       1.25622952       1.14565961
