15
Properties=species:S:1:pos:R:3 atomization_energy=-1459.47 smiles=C.C.C.C.C.H.H.H.H.H.H.H.H.H.H pbc="F F F"
C        0.92709961      -0.11956995       0.00579000
C        2.41738895       0.00483000       0.00143000
C        3.11229889       1.15876960       0.00017000
C        2.48381894       2.52473900       0.00423000
C        4.61783813       1.15823958      -0.00479000
H        0.64441978      -1.17698956      -0.00603000
H        0.49129981       0.34859986      -0.88144966
H        0.49923979       0.32717987       0.90780964
H        2.95981890      -0.93919965      -0.00092000
H        1.39065950       2.49265912       0.00473000
H        2.79626888       3.08594869      -0.88249968
H        2.79721891       3.08081880       0.89384967
H        5.03205805       0.14483994      -0.00403000
H        4.99954820       1.67458932       0.88164964
H        4.99352808       1.67095928      -0.89588964
