18
Properties=species:S:1:pos:R:3 atomization_energy=-1753.05 smiles=C.C.C.C.C.C.H.H.H.H.H.H.H.H.H.H.H.H pbc="F F F"
C        0.94421965      -0.14643994      -0.09861996
C        2.44183910       0.13074995      -0.02301999
C        2.87551881       1.58458932      -0.04016998
C        2.03471914       2.62957885      -0.13686995
C        4.36713845       1.82252925       0.09731996
C        5.15138803       1.40514950      -1.13937959
H        0.76243971      -1.22621951      -0.07482997
H        0.51352981       0.24188990      -1.02765961
H        0.41228984       0.29945989       0.74831969
H        2.91714892      -0.38837985      -0.86333966
H        2.82443889      -0.33170988       0.89531962
H        0.96037964       2.50986912      -0.22393991
H        2.40098894       3.65234859      -0.13296995
H        4.74252812       1.28000947       0.97353960
H        4.56820810       2.88405896       0.29067990
H        5.11000823       0.32259987      -1.29429950
H        6.20439765       1.68270934      -1.02732962
H        4.76550793       1.89597921      -2.03877915
