16
Properties=species:S:1:pos:R:3 atomization_energy=-1619.78 smiles=N.C.C.C.C.C.C.H.H.H.H.H.H.H.H.H pbc="F F F"
N        1.05707960      -0.28454989      -0.22529991
C        2.33327912       0.27151988       0.22696992
C        3.57495859      -0.45555983      -0.46652980
C        4.26796823       0.94799963      -0.14107995
C        2.86749896       1.40724940      -0.76082971
C        2.89482896       0.83488969      -2.14690927
C        3.36606869      -0.40628985      -1.95077925
H        0.25417990       0.30686988      -0.02249999
H        0.84918968      -1.20457959       0.15647993
H        2.39102917       0.46127983       1.30416943
H        3.98630850      -1.36515941      -0.03236999
H        4.44895837       1.18360960       0.91413962
H        5.16716781       1.19889948      -0.71405973
H        2.54239890       2.43843893      -0.63389977
H        2.58268889       1.30508943      -3.06374884
H        3.53046856      -1.19077959      -2.66919889
