17
Properties=species:S:1:pos:R:3 atomization_energy=-1789.02 smiles=C.C.C.C.C.C.C.H.H.H.H.H.H.H.H.H.H pbc="F F F"
C        1.99026922      -0.37941985       1.39626946
C        2.51036898       0.03861998       0.02821999
C        3.08485887       1.41598940       0.03288999
C        4.37421836       1.77502928      -0.10230996
C        4.49534846       3.26999861      -0.06534997
C        3.06587877       3.69171858       0.10074996
C        2.27566912       2.61012890       0.15181994
H        1.60464940      -1.40321942       1.35544945
H        1.17634952       0.27193989       1.73180935
H        2.78557886      -0.34775988       2.14875912
H        1.69927930      -0.01994999      -0.70723973
H        3.27265869      -0.68171976      -0.29271987
H        5.20819789       1.10026963      -0.22316992
H        4.91578785       3.65571848      -0.99845958
H        5.10633782       3.59701865       0.78077971
H        2.73350905       4.71644817       0.16519993
H        1.20163955       2.61149906       0.26326990
