15
Properties=species:S:1:pos:R:3 atomization_energy=-1538.32 smiles=C.N.C.C.C.C.N.H.H.H.H.H.H.H.H pbc="F F F"
C        1.10019961      -0.44664983      -0.22012991
N        2.50184902      -0.16612993       0.01590999
C        3.10376883       1.08787953       0.01482999
C        2.18359925       2.29279913       0.04704998
C        4.44678832       1.20939949       0.00000000
C        5.14978774       2.42703911       0.00000000
N        5.72528772       3.42383866       0.00000000
H        0.91300962      -1.51760938      -0.09254996
H        0.81751965      -0.17030992      -1.24078950
H        0.46263980       0.09010997       0.48933979
H        3.12297881      -0.95046964      -0.16594994
H        1.54418945       2.25566909       0.93641965
H        1.54405937       2.30591910      -0.84252965
H        2.71405885       3.24932864       0.07532997
H        5.06265776       0.31743988      -0.01074000
