15
Properties=species:S:1:pos:R:3 atomization_energy=-1430.54 smiles=C.N.C.C.C.O.H.H.H.H.H.H.H.H.H pbc="F F F"
C        2.70132899      -0.80218971      -0.98027962
N        2.51883899      -0.00366000       0.22676991
C        3.00477877       1.37802944       0.06442998
C        2.52318893       2.21509902       1.24458948
C        4.53185827       1.44768939       0.03239999
O        5.28450791       0.51183979       0.29212989
H        2.32645912      -1.81452933      -0.80254966
H        3.75370854      -0.88869965      -1.26994953
H        2.13535907      -0.38551986      -1.82107922
H        3.05581883      -0.44237981       0.97879963
H        2.62476891       1.81383933      -0.86574968
H        2.85366894       1.79052935       2.19981911
H        1.43007945       2.28084898       1.26062955
H        2.92212894       3.23546884       1.19046947
H        4.94496794       2.43536907      -0.22858991
