15
Properties=species:S:1:pos:R:3 atomization_energy=-1544.93 smiles=N.C.N.C.C.C.C.H.H.H.H.H.H.H.H pbc="F F F"
N        0.92124962      -0.02371999       0.06643997
C        2.21389919       0.01754999       0.06755997
N        2.88282884       1.19618957       0.26917989
C        4.25950856       1.31637949      -0.18792994
C        5.06643819       0.04582998       0.11575995
C        4.29069822      -1.22268953      -0.11117996
C        2.95064892      -1.25074952      -0.15202994
H        0.55300981       0.90889965       0.25400991
H        2.33270911       2.03964919       0.17503994
H        4.73096832       2.18153922       0.28992988
H        4.25479855       1.50373936      -1.26878956
H        5.40247781       0.05959998       1.15906950
H        5.96494740       0.04219998      -0.51080981
H        4.84881812      -2.14695924      -0.22264991
H        2.37342906      -2.15458923      -0.29917987
