19
Properties=species:S:1:pos:R:3 atomization_energy=-1899.34 smiles=C.C.C.C.C.C.C.H.H.H.H.H.H.H.H.H.H.H.H pbc="F F F"
C        0.79208971       0.33116986       0.19909993
C        2.27196919       0.09876996       0.15201995
C        2.80180881      -1.13406953       0.17401994
C        3.20807879       1.25577949       0.03516999
C        2.63665901       2.69776885       0.12026996
C        3.92394837       3.08057883       0.88113968
C        4.00382837       1.60586943       1.32486943
H        0.46952980       0.93470960      -0.65526977
H        0.51484979       0.84853967       1.12298954
H        0.23032991      -0.60866974       0.16747994
H        2.17619913      -2.01952918       0.24247990
H        3.87486842      -1.29693951       0.12319995
H        3.86458845       1.14171958      -0.84112965
H        1.73461930       2.82817894       0.72856973
H        2.49128896       3.20595870      -0.83714970
H        4.74785837       3.39239870       0.22912991
H        3.80400851       3.81384842       1.68223937
H        5.01302824       1.19006953       1.38943948
H        3.47521861       1.40300948       2.26448908
