17
Properties=species:S:1:pos:R:3 atomization_energy=-1652.23 smiles=N.C.C.N.C.C.C.H.H.H.H.H.H.H.H.H.H pbc="F F F"
N        1.07609957       0.20271992       0.23887990
C        2.46651911      -0.08959997      -0.09054996
C        2.71016891      -1.53749939      -0.60413976
N        2.93650879      -1.48143946      -2.06186923
C        3.24854868      -0.08522997      -2.38355916
C        2.15410905       0.92979961      -2.50253889
C        2.92277894       0.79295968      -1.21117956
H        1.00070962       1.15997953       0.57243976
H        0.76303969      -0.40592984       0.98987962
H        3.08452883       0.08456996       0.79851967
H        1.89222920      -2.22206917      -0.35415985
H        3.61852864      -1.92713922      -0.12471995
H        3.68493843      -2.11965927      -2.32208899
H        4.16640843       0.09867996      -2.93290878
H        2.33981905       1.80724932      -3.11074882
H        1.12960957       0.57864976      -2.53841888
H        3.62541854       1.56192934      -0.92308962
