11
Properties=species:S:1:pos:R:3 atomization_energy=-1268.07 smiles=C.C.C.C.N.C.N.H.H.H.H pbc="F F F"
C        0.95142964       0.06060998      -0.00622000
C        2.45387908      -0.01203000      -0.00237000
C        3.14089887      -1.17003960       0.00263000
C        2.51914910      -2.44770908       0.00246000
N        2.00358916      -3.48495860       0.00195000
C        3.18706868       1.21294954      -0.00301000
N        3.79485847       2.20007925      -0.00332000
H        0.60064977       1.09857951       0.01339999
H        0.53447980      -0.43964984       0.87435966
H        0.54235979      -0.40488985      -0.90924963
H        4.22747839      -1.17170953       0.00586000
