13
Properties=species:S:1:pos:R:3 atomization_energy=-1362.1 smiles=C.C.C.N.C.C.N.H.H.H.H.H.H pbc="F F F"
C        1.17598957      -0.39179985       0.57245976
C        2.34616896      -0.32473989       0.30923987
C        3.77741860      -0.24455991      -0.00830999
N        4.25703824       1.10508953       0.27747988
C        5.68434798       1.26612949      -0.03838999
C        6.59857743       0.52482981       0.85543968
N        7.30219709      -0.06856997       1.56332940
H        0.13755995      -0.44691982       0.80528966
H        3.92467836      -0.48207981      -1.06806964
H        4.31763812      -0.99167963       0.58365980
H        4.10155828       1.30628952       1.26554950
H        5.91893783       2.33416910       0.03688999
H        5.87032772       0.98880961      -1.08260960
