13
Properties=species:S:1:pos:R:3 atomization_energy=-1304.14 smiles=C.C.C.O.C.N.H.H.H.H.H.H.H pbc="F F F"
C        0.95679963      -0.07711997      -0.01716999
C        2.47788890      -0.01415000       0.03034999
C        3.00203871       1.42537940       0.01366000
O        2.51951902       2.12049928       1.17049960
C        4.47907814       1.44251938      -0.03505999
N        5.63981757       1.43865947      -0.05256998
H        0.62330974      -1.11961953      -0.03259999
H        0.57282980       0.41497982      -0.91639962
H        0.50996980       0.40527983       0.85768965
H        2.88420884      -0.57273978      -0.82185968
H        2.81372894      -0.52522978       0.94174965
H        2.60781907       1.95123926      -0.86285966
H        2.97685882       1.75179928       1.94727929
