15
Properties=species:S:1:pos:R:3 atomization_energy=-1507.74 smiles=C.C.N.N.C.C.C.H.H.H.H.H.H.H.H pbc="F F F"
C        1.23453951      -0.50255980      -0.29993989
C        2.74088898      -0.41008983      -0.24562991
N        3.45866871      -1.41883948      -0.61946977
N        3.30013882       0.74186973       0.22533992
C        4.72062830       0.99633962       0.14463993
C        5.01330782       2.31220921       0.73280971
C        5.24920778       3.38868867       1.21239958
H        0.77789967       0.48585980      -0.20172991
H        0.88787963      -1.13964958       0.51866980
H        0.92401965      -0.94383964      -1.25129947
H        2.85770876      -2.19179926      -0.92397966
H        2.71563895       1.56367939       0.31074989
H        5.04548813       0.98178963      -0.90186964
H        5.27598769       0.22084992       0.68363975
H        5.46047767       4.34145819       1.63981933
