12
Properties=species:S:1:pos:R:3 atomization_energy=-1252.2 smiles=C.C.N.N.C.C.N.H.H.H.H.H pbc="F F F"
C        0.85710966       0.14380994      -0.03141999
C        2.34783914       0.04718998      -0.10587996
N        3.09846887       0.96620963       0.40993985
N        4.44511839       0.66565976       0.22071991
C        5.19004821       1.58261937       0.73534974
C        6.59896754       1.34262951       0.57992977
N        7.74508689       1.18225950       0.47342980
H        0.47191982      -0.73313970       0.49502980
H        0.45206984       0.14846995      -1.04653960
H        0.54854979       1.05196958       0.49192981
H        2.76756897      -0.83754964      -0.61716977
H        4.84155805       2.48689890       1.25684950
