21
Properties=species:S:1:pos:R:3 atomization_energy=-1926.53 smiles=C.N.C.C.C.C.N.H.H.H.H.H.H.H.H.H.H.H.H.H.H pbc="F F F"
C        1.34512948      -0.23386991      -0.11535995
N        2.75514897       0.12821995      -0.11013996
C        3.04733873       1.58235934      -0.04061998
C        2.52581898       2.31085899      -1.29607944
C        2.44405910       2.23285911       1.21657957
C        4.60356829       1.74846926       0.03408999
N        5.32647766       1.00372958      -1.01047963
H        1.26110948      -1.32455944      -0.16665994
H        0.81473965       0.17072993      -0.98192961
H        0.83586968       0.07661997       0.80101971
H        3.17757875      -0.21484991      -0.97550961
H        2.88095882       1.83654927      -2.21802909
H        2.86441875       3.35351874      -1.31106943
H        1.43107944       2.33011918      -1.33099944
H        2.74502898       1.69737938       2.12455929
H        1.34943942       2.25486920       1.18448948
H        2.78268891       3.27071876       1.31940948
H        4.96949807       1.40083943       1.00862960
H        4.87038791       2.80893893      -0.04736998
H        5.21397779       0.01012000      -0.80319966
H        6.32387751       1.18746950      -0.90656962
