17
Properties=species:S:1:pos:R:3 atomization_energy=-1644.12 smiles=C.C.C.C.C.N.N.H.H.H.H.H.H.H.H.H.H pbc="F F F"
C        2.44778907      -0.82401970       1.22308947
C        2.84808889      -0.18894992      -0.09949996
C        3.08671881       1.28577953       0.04989998
C        4.26625843       1.87006921      -0.20563991
C        4.42499851       3.32928863      -0.04069998
N        5.55472794       3.91282838      -0.29048989
N        5.51696808       5.25051787      -0.09178997
H        2.27270903      -1.89646924       1.08955955
H        1.52718939      -0.37822985       1.61487942
H        3.23389884      -0.70029973       1.97563918
H        2.04936924      -0.34337985      -0.83391967
H        3.74055855      -0.69447971      -0.48637982
H        2.23678916       1.88191931       0.37541987
H        5.14018805       1.32047949      -0.53495980
H        3.53498857       3.88626850       0.30605987
H        6.46997731       5.62083772      -0.13661995
H        5.02348788       5.71416798      -0.85904965
