13
Properties=species:S:1:pos:R:3 atomization_energy=-1310.13 smiles=C.C.C.C.C.H.H.H.H.H.H.H.H pbc="F F F"
C        1.62125936      -0.96063960       0.74599970
C        2.39538895      -0.29885988      -0.12494995
C        3.30503859       0.83700965       0.24130990
C        4.73655797       0.50339981      -0.06364998
C        5.50091779       1.17302960      -0.93590963
H        0.98120959      -1.77211926       0.41347984
H        1.60846932      -0.71185972       1.80249931
H        2.36870896      -0.58351975      -1.17503954
H        3.22291864       1.07674958       1.30795945
H        2.98603889       1.73026937      -0.30848988
H        5.16722787      -0.33725987       0.47777981
H        5.11920822       2.02043921      -1.49724940
H        6.53286734       0.88157968      -1.10747962
