18
Properties=species:S:1:pos:R:3 atomization_energy=-1798.47 smiles=N.C.C.C.C.C.C.H.H.H.H.H.H.H.H.H.H.H pbc="F F F"
N        0.95643961       0.06626997      -0.15147994
C        2.38204895      -0.02310999       0.15083994
C        3.12021881       1.26380955      -0.27015988
C        3.49379852       1.28562952      -1.74944932
C        4.30068852       0.05072998      -2.15720919
C        3.79922859      -1.22011953      -1.53958945
C        2.92820886      -1.24893955      -0.52115980
H        0.56215979       0.87648966       0.32272988
H        0.48250982      -0.74555969       0.24072990
H        2.49394903      -0.13741995       1.23568950
H        2.51682892       2.14997914      -0.02719999
H        4.03807830       1.35262953       0.32920987
H        4.08054843       2.18920908      -1.96862917
H        2.58571888       1.34738949      -2.35604899
H        5.35024777       0.17985992      -1.87115928
H        4.27431839      -0.04178998      -3.24934883
H        4.16046829      -2.15484913      -1.96244919
H        2.59385909      -2.21130901      -0.14199995
