20
Properties=species:S:1:pos:R:3 atomization_energy=-1912.92 smiles=C.N.C.C.C.C.C.H.H.H.H.H.H.H.H.H.H.H.H.H pbc="F F F"
C        2.58908902      -0.90309962      -0.40550983
N        2.22197909       0.34050986       0.25789989
C        3.30941881       1.32498954       0.23721991
C        3.44077867       2.25113899      -0.93967964
C        3.00478887       2.80277877       0.39781984
C        1.57627942       3.26525882       0.53253982
C        3.99138844       3.63471846       1.17502957
H        1.74147931      -1.59480937      -0.38345986
H        3.43525867      -1.38606947       0.09390997
H        2.84814894      -0.72921973      -1.45486948
H        1.94608917       0.14015995       1.21900953
H        4.23888856       0.97391961       0.68408972
H        2.70676900       2.17509922      -1.73461930
H        4.43985829       2.47433911      -1.29618946
H        0.89408963       2.71988896      -0.12824995
H        1.49579938       4.32797815       0.27966990
H        1.23041957       3.13166885       1.56295936
H        5.02014802       3.28062882       1.04591956
H        3.75678850       3.60168855       2.24417919
H        3.95378856       4.67842791       0.84563969
