11
Properties=species:S:1:pos:R:3 atomization_energy=-1125.26 smiles=C.O.C.C.C.H.H.H.H.H.H pbc="F F F"
C       -0.36168985       1.16669949       0.13910994
O       -1.20058947      -0.00116000       0.16430993
C       -0.36385985      -1.17000957       0.12618994
C        1.02058960      -0.66780975      -0.02653999
C        1.02192960       0.66281971      -0.01911999
H       -0.48951980       1.71436935       1.07729954
H       -0.66471976       1.80041935      -0.69905971
H       -0.66809974      -1.79370936      -0.71882974
H       -0.49286981      -1.72793934       1.05798957
H        1.89118921      -1.29870949      -0.12233995
H        1.89386922       1.29407946      -0.10798995
