19
Properties=species:S:1:pos:R:3 atomization_energy=-1775.44 smiles=C.N.C.C.C.N.C.H.H.H.H.H.H.H.H.H.H.H.H pbc="F F F"
C        2.39967908      -1.03666960      -0.65760976
N        2.10293917       0.26872989      -0.08034997
C        3.28849878       1.13931953      -0.04904998
C        3.42408873       2.23908917      -1.06080956
C        3.11803867       2.58189909       0.37014986
N        4.15449839       3.23670880       1.17988948
C        4.08094837       2.84496881       2.58083905
H        1.48176938      -1.62909942      -0.71337970
H        3.12032883      -1.58461935      -0.04280999
H        2.79834884      -0.93990965      -1.67199939
H        1.74525936       0.13617994       0.86563966
H        4.20909833       0.65807973       0.27646989
H        2.63320889       2.36574911      -1.79010935
H        4.41509804       2.45113902      -1.44078940
H        2.10306912       2.91980875       0.57016979
H        4.06272829       4.25027829       1.10942950
H        4.26650824       1.77244931       2.69933885
H        3.10465880       3.08624872       3.01455888
H        4.84838815       3.37651873       3.15230879
