15
Properties=species:S:1:pos:R:3 atomization_energy=-1514.55 smiles=C.N.C.C.C.C.N.H.H.H.H.H.H.H.H pbc="F F F"
C        1.14964960      -0.01227000      -0.16953993
N        2.59431909       0.01781999      -0.33764988
C        3.26161869      -1.20648948       0.14588994
C        4.57368823      -0.66742974       0.60119978
C        5.68153752      -1.28167953       1.02447960
C        4.39748834       0.78904968       0.49811982
N        3.25316862       1.16448958       0.01700999
H        0.72223975      -0.91971961      -0.60870973
H        0.68953976       0.84201969      -0.67701971
H        0.87155967       0.03059999       0.88903966
H        3.37165858      -1.93057926      -0.66670971
H        2.73173895      -1.65846939       0.99165963
H        5.73085767      -2.36380918       1.07719961
H        6.55920719      -0.72166973       1.32861945
H        5.18806791       1.47112945       0.84115968
