16
Properties=species:S:1:pos:R:3 atomization_energy=-1657.9 smiles=N.C.C.C.C.C.C.H.H.H.H.H.H.H.H.H pbc="F F F"
N        2.55933891      -0.60748977      -1.32058951
C        2.30891906       0.06046998      -0.05346998
C        2.87300887       1.43405947      -0.03707998
C        2.20999915       2.59405893       0.12914995
C        3.14705878       3.68895857       0.12252996
C        4.38862849       3.21183877      -0.03995999
C        4.34599813       1.71561927      -0.16439993
H        2.09747922      -1.51427936      -1.31363943
H        3.55402873      -0.79934971      -1.41153941
H        2.74157886      -0.52644980       0.76460969
H        1.22667952       0.09506997       0.11649995
H        1.14512958       2.71167886       0.25549991
H        2.86880882       4.72625831       0.23317991
H        5.28957775       3.80417858      -0.08509997
H        4.73811838       1.39772944      -1.13480961
H        4.91413811       1.24093951       0.64117971
