12
Properties=species:S:1:pos:R:3 atomization_energy=-1391.8 smiles=N.C.C.C.C.C.C.H.H.H.H.H pbc="F F F"
N        0.99999962       0.00000000       0.00000000
C        2.15100915       0.00000000       0.00000000
C        3.59500859       0.00000000       0.00000000
C        4.16388839       1.16556955      -0.77260967
C        4.92737793       0.71965972      -1.78375930
C        4.92627827      -0.72238969      -1.78175933
C        4.16349829      -1.16592950      -0.77109972
H        3.99123855       0.00044000       1.02130963
H        3.98357853       2.20406912      -0.53547979
H        5.46069770       1.32586942      -2.50062900
H        5.45965810      -1.33118944      -2.49865905
H        3.98281851      -2.20509913      -0.53270976
