15
Properties=species:S:1:pos:R:3 atomization_energy=-1404.28 smiles=C.C.O.N.C.C.H.H.H.H.H.H.H.H.H pbc="F F F"
C        0.69291974      -0.29493988       0.24997991
C        2.08806916      -0.85889964       0.07210997
O        2.96961894       0.21084992      -0.26703990
N        4.25984821      -0.31418988      -0.43451982
C        5.05904791       0.64950974      -0.75101970
C        6.51160743       0.39246985      -0.99689961
H       -0.01681000      -1.08452958       0.51248980
H        0.35421988       0.19328992      -0.66989974
H        0.68185974       0.46641982       1.03704961
H        2.09172923      -1.60461938      -0.73059973
H        2.42440906      -1.32942943       1.00264961
H        4.70940813       1.69201935      -0.85475964
H        6.75176723      -0.66432972      -0.85790968
H        7.10063740       0.99804960      -0.30346988
H        6.75557743       0.69377974      -2.01882921
