10
Properties=species:S:1:pos:R:3 atomization_energy=-988.51 smiles=O.C.C.C.N.H.H.H.H.H pbc="F F F"
O        2.21062923      -1.00580961      -0.46087982
C        2.04350923       0.15180994      -0.09244996
C        3.17253869       1.10604953      -0.07847997
C        3.33740865       2.08543924      -1.20881951
N        2.79744878       2.51732904       0.07685997
H        1.06234954       0.52150979       0.24867990
H        4.06032836       0.77855970       0.44861983
H        2.63745890       2.04760923      -2.03501916
H        4.33554809       2.42208913      -1.45977947
H        3.50615871       3.02008872       0.61570978
