17
Properties=species:S:1:pos:R:3 atomization_energy=-1791.32 smiles=C.C.C.C.C.C.C.H.H.H.H.H.H.H.H.H.H pbc="F F F"
C        0.97394964       0.06203998      -0.00188000
C        2.45622904       0.02436999       0.00203000
C        3.31519871       1.05896956       0.00441000
C        4.67021806       0.55529978       0.00534000
C        5.86573782       1.43535948       0.00403000
C        4.64280832      -0.78769971       0.00326000
C        3.22150862      -1.27021953       0.00261000
H        0.59904973       1.09035957      -0.00082000
H        0.57734975      -0.44299982       0.88414967
H        0.58252979      -0.43944983      -0.89188962
H        3.05357888       2.10626918       0.00355000
H        5.58654792       2.49370907      -0.03476999
H        6.49705750       1.22701953      -0.86571965
H        6.45825753       1.28056952       0.91146964
H        5.50529776      -1.43649939       0.00262000
H        3.00945876      -1.86122929      -0.89350965
H        3.00843884      -1.86085924       0.89873965
