18
Properties=species:S:1:pos:R:3 atomization_energy=-1753.66 smiles=C.N.C.C.C.C.C.H.H.H.H.H.H.H.H.H.H.H pbc="F F F"
C        1.09840957      -0.25953990       0.02505999
N        2.53265892      -0.02297999       0.01313999
C        2.96069877       1.38567949       0.00000000
C        2.46909894       2.11805923      -1.26199946
C        2.46988900       2.13450921       1.25064947
C        4.40469846       1.38567949       0.00000000
C        5.59485769       1.38567949       0.00000000
H        0.91865963      -1.33969944       0.04694998
H        0.60441978       0.12988995      -0.86963968
H        0.61832974       0.15478995       0.91551962
H        2.94111888      -0.49261982      -0.79449966
H        2.76658892       1.58887933      -2.17625919
H        2.89451885       3.12820888      -1.32438949
H        1.37895941       2.22813900      -1.27620949
H        2.76015901       1.61291931       2.17236925
H        1.38015949       2.25428909       1.26062955
H        2.90251876       3.14277874       1.30495948
H        6.66013718       1.37905946       0.00618000
