16
Properties=species:S:1:pos:R:3 atomization_energy=-1657.66 smiles=N.C.C.C.C.C.C.H.H.H.H.H.H.H.H.H pbc="F F F"
N        1.00472963       0.10805995      -0.20502992
C        2.44645903       0.00581000      -0.01167999
C        2.86751890      -1.29868943       0.70162970
C        3.30749882      -0.85893964       2.07419914
C        3.54258853      -1.64819938       3.12596868
C        3.38869876       0.57628977       2.07123917
C        2.91696876       1.07316963       0.92294964
H        0.67796974      -0.67875973      -0.76087967
H        0.79249968       0.95029964      -0.73442974
H        2.95094895       0.08509997      -0.98103964
H        3.71422854      -1.75024933       0.16820993
H        2.06178924      -2.03993924       0.74236972
H        3.43155874      -2.72469890       3.05059885
H        3.83021841      -1.24103956       4.08968837
H        3.74709847       1.16643959       2.90241883
H        2.85611883       2.12888904       0.70086975
