15
Properties=species:S:1:pos:R:3 atomization_energy=-1476.28 smiles=C.C.N.N.C.C.C.H.H.H.H.H.H.H.H pbc="F F F"
C        1.66176938       0.52357979      -2.00525921
C        2.74278904       0.72275974      -0.98912963
N        3.74226860       1.50596946      -1.23585945
N        4.63585811       1.57424942      -0.21719992
C        5.75335755       2.50200900      -0.40701984
C        6.63030758       2.47893911       0.77177969
C        7.35033734       2.46217901       1.73424926
H        1.62198936      -0.53454977      -2.27544909
H        1.84776931       1.12461960      -2.89842897
H        0.70401973       0.80835971      -1.56265934
H        2.63614905       0.17214992      -0.03644999
H        5.02315782       0.65560972       0.00900000
H        5.36959805       3.51650858      -0.56176981
H        6.32384774       2.21974923      -1.29911953
H        7.98573672       2.45163914       2.58946903
