16
Properties=species:S:1:pos:R:3 atomization_energy=-1616.75 smiles=C.N.C.C.C.C.C.H.H.H.H.H.H.H.H.H pbc="F F F"
C        1.00828959      -0.01802999      -0.03140999
N        2.46328902       0.01236999       0.01176000
C        2.96069877       1.38567949       0.00000000
C        4.40469846       1.38567949       0.00000000
C        5.59485769       1.38567949       0.00000000
C        7.00085704       1.38567949       0.00000000
C        7.70359707       2.52168907      -0.05779998
H        0.66501972      -1.05715959      -0.01484999
H        0.62303975       0.44863983      -0.94381964
H        0.57572978       0.48516980       0.83876966
H        2.83770899      -0.47768982      -0.80009971
H        2.59300898       1.92265921       0.88203968
H        2.59289897       1.91513923      -0.88693964
H        7.51406703       0.42996984       0.05132998
H        7.21855735       3.49180863      -0.10696996
H        8.78826669       2.50125907      -0.05442998
