14
Properties=species:S:1:pos:R:3 atomization_energy=-1383.77 smiles=C.N.N.C.C.C.N.H.H.H.H.H.H.H pbc="F F F"
C        1.18629957       1.47549946      -1.48850940
N        2.47121903       1.53534940      -1.36646951
N        2.91725894       1.17101953      -0.13989994
C        4.37241822       1.24107955       0.05224998
C        4.89674794       2.67117894      -0.07465997
C        6.34536756       2.70193887       0.15439994
N        7.49117705       2.71800884       0.34148986
H        0.71973971       1.74772930      -2.44836892
H        0.50652980       1.16881958      -0.67438973
H        2.60517892       0.22598991       0.10429996
H        4.87148807       0.57867979      -0.66632976
H        4.60300811       0.85394966       1.05251960
H        4.39679847       3.32033869       0.65412973
H        4.68057828       3.07537879      -1.07024953
