17
Properties=species:S:1:pos:R:3 atomization_energy=-1665.71 smiles=C.N.C.N.C.C.C.H.H.H.H.H.H.H.H.H.H pbc="F F F"
C        1.11679959       1.17285953      -0.80347969
N        2.42868911       0.57501978      -0.73374971
C        3.54515852       1.16739958      -0.19210993
N        3.58487849       2.43079910       0.09694996
C        4.78664824       0.36487986       0.09969996
C        5.75334796       0.94216965       1.08960952
C        5.00556782      -0.80391969      -0.52701979
H        0.40791985       0.45845981      -1.23238951
H        1.12543955       2.05895922      -1.44494946
H        0.76128971       1.45014937       0.19319992
H        2.40367904      -0.43476982      -0.64088973
H        2.70575892       2.87298893      -0.16343994
H        5.25594805       1.12933958       2.04715920
H        6.17301774       1.88414929       0.72088971
H        6.59119724       0.26335990       1.28363951
H        4.33435809      -1.20126950      -1.27879954
H        5.90449792      -1.37895941      -0.32870988
