15
Properties=species:S:1:pos:R:3 atomization_energy=-1408.96 smiles=C.N.C.C.C.O.H.H.H.H.H.H.H.H.H pbc="F F F"
C        1.19388957      -0.19560992      -0.30752989
N        2.64062894      -0.10184996      -0.15958993
C        3.04910884       1.28673953       0.05285998
C        4.52882828       1.31077950       0.25895990
C        5.48489778       1.46328940      -0.89527962
O        5.15131788       2.56822905      -0.04254998
H        0.90947963      -1.24266949      -0.45098983
H        0.84215967       0.37095985      -1.17600950
H        0.67865974       0.16537994       0.58859975
H        3.08272869      -0.45341981      -1.00807958
H        2.56559900       1.69606927       0.94698962
H        2.76276887       1.90770921      -0.80479969
H        4.85172801       0.78949971       1.15038955
H        5.09338817       1.47519943      -1.90444922
H        6.47637744       1.03910958      -0.79746966
