13
Properties=species:S:1:pos:R:3 atomization_energy=-1277.49 smiles=O.C.C.N.C.C.H.H.H.H.H.H.H pbc="F F F"
O        1.49465947       1.51722936       0.20191992
C        2.61433905       1.97035928      -0.03128999
C        3.49134863       1.48472936      -1.16145958
N        4.86635817       1.38019949      -0.65620976
C        5.29933792       0.00667000      -0.40814984
C        5.77587761       0.76409967      -1.61910937
H        2.99669888       2.83664894       0.53556981
H        3.44648868       2.23880908      -1.95432917
H        3.08156873       0.54469979      -1.55014939
H        4.59449799      -0.80446971      -0.54746975
H        5.99564754      -0.12949995       0.41105983
H        6.79140746       1.14195955      -1.61544931
H        5.39176787       0.48234980      -2.59212886
