17
Properties=species:S:1:pos:R:3 atomization_energy=-1640.69 smiles=C.C.C.C.C.N.N.H.H.H.H.H.H.H.H.H.H pbc="F F F"
C        1.50091943       0.18328993       1.53290936
C        1.87088929       0.48937982       0.09217997
C        2.76954902       1.71925927       0.01214999
C        2.13952909       3.07319890      -0.16131993
C        0.82870966       3.33361863      -0.08165997
N        4.04981852       1.48815942       0.10119996
N        4.87487789       2.55794907       0.06485998
H        0.87209966      -0.71062973       1.58222939
H        0.95243959       1.01293961       1.98921928
H        2.39575912       0.00584000       2.13822908
H        0.97434964       0.62435975      -0.52026980
H        2.41115915      -0.36428985      -0.33497987
H        2.82681888       3.88641838      -0.37187985
H        0.08087997       2.57855899       0.12951994
H        0.46892982       4.34815809      -0.22672992
H        5.83390774       2.23149904      -0.07892997
H        4.89709818       3.01346881       0.98070959
