15
Properties=species:S:1:pos:R:3 atomization_energy=-1423.42 smiles=N.C.C.C.C.O.H.H.H.H.H.H.H.H.H pbc="F F F"
N        1.05162956      -0.09265997      -0.05554997
C        2.50926907      -0.05230998      -0.03843998
C        3.25621880      -0.64272973      -1.20160952
C        3.22265874       0.85138969      -1.00778959
C        4.44779815       1.58881940      -0.58816978
O        5.23615770       1.87438925      -1.73423930
H        0.65793975       0.64317975       0.53039980
H        0.70593971      -0.97368961       0.32404989
H        2.95757895      -0.18504993       0.94406964
H        2.68420882      -1.05407957      -2.02594924
H        4.17360845      -1.17905956      -0.99000964
H        2.62007908       1.43666946      -1.69428933
H        5.05842818       1.01599963       0.11738996
H        4.17679842       2.53683904      -0.11447996
H        5.35708796       1.03485956      -2.20938902
