17
Properties=species:S:1:pos:R:3 atomization_energy=-1677.9 smiles=C.N.C.C.C.C.N.H.H.H.H.H.H.H.H.H.H pbc="F F F"
C        1.13225955      -0.00298000       0.24861991
N        2.44460893       0.08319997      -0.37432986
C        3.09383884       1.18359950      -0.24789991
C        2.64824884       2.44185903       0.45885982
C        3.47181870       3.49136857      -0.29275990
C        4.74482837       2.76608880      -0.73452973
N        4.33193823       1.38537947      -0.78361970
H        0.79702966      -1.04465960       0.22995991
H        0.39657986       0.58966976      -0.30419987
H        1.14989953       0.31196988       1.29759948
H        2.93767885       2.38085896       1.51299941
H        1.57741933       2.63056900       0.37095985
H        2.91494885       3.82148850      -1.17904959
H        3.68248855       4.37605835       0.31475987
H        5.09508788       3.12215874      -1.70728931
H        5.54415778       2.88974877       0.00251000
H        4.63300828       0.76592970      -1.52576939
