17
Properties=species:S:1:pos:R:3 atomization_energy=-1666.05 smiles=C.C.C.C.N.C.N.H.H.H.H.H.H.H.H.H.H pbc="F F F"
C        2.76154885      -0.01144999      -1.66568935
C        2.43642911       0.39548985      -0.23468991
C        2.39612903       1.90288931      -0.06008997
C        1.20476947       2.52571905      -0.06143997
N        3.57612866       2.60628893       0.12675995
C        4.86645809       2.18164924       0.18091993
N        5.89878766       2.92333886       0.38813985
H        2.80347899      -1.10268961      -1.74595932
H        3.72647847       0.38800984      -1.99324925
H        1.99287921       0.34646987      -2.35956901
H        3.15743868      -0.05023998       0.45992983
H        1.46782947      -0.04350998       0.03762999
H        0.27862988       1.97578919      -0.20142992
H        1.11452950       3.59910846       0.06824997
H        3.44005877       3.60134866       0.25767989
H        5.00955818       1.10094954       0.02914999
H        5.61676761       3.89682856       0.51269980
