15
Properties=species:S:1:pos:R:3 atomization_energy=-1475.84 smiles=C.N.N.C.C.C.C.H.H.H.H.H.H.H.H pbc="F F F"
C        1.29367952      -0.42190985      -0.46075981
N        2.72290887      -0.20824992      -0.25998990
N        3.11344876       1.08804960      -0.21477992
C        4.39363828       1.23756950      -0.07805997
C        5.00911812       2.60806887      -0.01180000
C        5.72376767       2.79481898       1.25837951
C        6.30795743       2.95500896       2.29527904
H        1.08430955      -1.49400946      -0.52129979
H        0.95930963       0.04001998      -1.39501941
H        0.71517970      -0.00331000       0.36881985
H        3.01312892      -0.71861974       0.57812977
H        5.08671805       0.37717984      -0.02347999
H        4.23090833       3.36860865      -0.13129995
H        5.70736766       2.69822885      -0.85033968
H        6.82214747       3.10311883       3.21778875
