15
Properties=species:S:1:pos:R:3 atomization_energy=-1529.05 smiles=C.N.C.C.C.C.N.H.H.H.H.H.H.H.H pbc="F F F"
C        0.90050963      -0.06409997      -0.06684997
N        2.34903898      -0.08274997       0.15744994
C        2.95832888      -1.41270947       0.09224997
C        3.09263875       1.08631962       0.04142999
C        4.42223851       1.25154953       0.04835998
C        5.02015811       2.53382898      -0.07793997
N        5.51564788       3.57683872      -0.18339993
H        0.45598983       0.87300963       0.28586990
H        0.40851983      -0.87778966       0.47688980
H        0.68289973      -0.17378993      -1.13425953
H        2.24359908      -2.19664907       0.36474985
H        3.79889855      -1.49131936       0.78973968
H        3.31766878      -1.61605932      -0.92198965
H        2.45601910       1.96728916      -0.05812998
H        5.09262815       0.40926985       0.15226995
