17
Properties=species:S:1:pos:R:3 atomization_energy=-1791.48 smiles=C.C.C.C.C.C.C.H.H.H.H.H.H.H.H.H.H pbc="F F F"
C        1.00661959       0.02682999       0.03892999
C        2.49141891      -0.00512000      -0.01089999
C        3.27623876      -1.09028955      -0.02353999
C        4.66513813      -0.71132970      -0.06444997
C        5.70088779      -1.54848943       0.03892999
C        4.73586809       0.78307971      -0.22528991
C        3.29337861       1.26212953      -0.02177999
H        0.58144975      -0.98199963       0.02368999
H        0.60870973       0.57215980      -0.82263970
H        0.66609976       0.52401979       0.95249965
H        2.93173897      -2.11425913       0.00826999
H        6.72131741      -1.18061959       0.00676000
H        5.55872789      -2.61705893       0.16395993
H        5.07724806       1.03802960      -1.23606952
H        5.41312771       1.24725953       0.49930981
H        2.98612872       1.93287926      -0.83037965
H        3.18793872       1.79130930       0.93184962
