21
Properties=species:S:1:pos:R:3 atomization_energy=-1920.17 smiles=C.N.C.C.C.N.C.H.H.H.H.H.H.H.H.H.H.H.H.H.H pbc="F F F"
C        1.01349960      -0.07062997      -0.04490998
N        2.46801897      -0.01016000      -0.01297000
C        2.94067881       1.37535940      -0.00754000
C        4.47142847       1.40671951      -0.00579000
C        4.98611812       2.84817897       0.01151999
N        6.44962730       2.85647890       0.00460000
C        6.96890736       4.21692842       0.01701999
H        0.69239975      -1.11659950      -0.03355999
H        0.61237976       0.39514983      -0.95059960
H        0.57740974       0.41706985       0.83265965
H        2.84646892      -0.49987980      -0.82322965
H        2.56495908       1.89300928       0.88332966
H        2.56598910       1.90571920      -0.89172964
H        4.85222813       0.88781964      -0.89486965
H        4.85140805       0.86814966       0.87177964
H        4.61448818       3.35534865       0.91003961
H        4.60186808       3.38476870      -0.86457968
H        6.79238752       2.36990904      -0.82320965
H        6.65690733       4.75099838       0.92042961
H        6.64231754       4.78011791      -0.86341965
H        8.06289659       4.18967841       0.01250999
