17
Properties=species:S:1:pos:R:3 atomization_energy=-1651.18 smiles=C.N.C.N.C.C.C.H.H.H.H.H.H.H.H.H.H pbc="F F F"
C        0.94945962       0.02579999       0.13829994
N        2.25273902      -0.34499988      -0.39644985
C        2.63112892      -1.66947936      -0.37732986
N        3.78936850      -2.19040916      -0.58219975
C        3.30340878       0.68479972      -0.30682989
C        4.17119843       1.01686961      -1.49224945
C        3.16562885       2.01348925      -1.00327961
H        0.67006975       1.04088959      -0.16158994
H        0.95785961      -0.02252999       1.23219951
H        0.17038993      -0.64785974      -0.23492991
H        1.79067924      -2.34993904      -0.15495994
H        4.45473827      -1.44307943      -0.79281970
H        3.78092853       0.69607974       0.67094976
H        3.96909850       0.51512978      -2.43187907
H        5.21992776       1.22011953      -1.31143947
H        3.53175873       2.89414893      -0.48887979
H        2.29880916       2.19095925      -1.62846935
