19
Properties=species:S:1:pos:R:3 atomization_energy=-1924.83 smiles=C.C.C.C.C.C.C.H.H.H.H.H.H.H.H.H.H.H.H pbc="F F F"
C        0.97107962       0.00857000      -0.03976999
C        2.49469896      -0.00135000      -0.00907999
C        3.06627871      -1.26519952       0.65297974
C        3.36481864      -0.88093964       2.11077922
C        4.60105810      -1.58258934       2.65244889
C        3.51941872       0.60699974       2.02090918
C        3.03891869       1.08582959       0.86813963
H        0.59485977      -0.81213969      -0.65946976
H        0.59597974       0.94756960      -0.46093982
H        0.54209977      -0.10446996       0.96216961
H        2.88384877       0.09503996      -1.02879958
H        3.99065844      -1.55397939       0.13412994
H        2.38715916      -2.12296910       0.59135975
H        2.50432893      -1.11228956       2.75030901
H        5.49390803      -1.34649951       2.06260919
H        4.46384844      -2.66902907       2.63902891
H        4.79666832      -1.27995951       3.68709864
H        3.92460846       1.21899956       2.81580890
H        3.01416878       2.13422912       0.60255978
