13
Properties=species:S:1:pos:R:3 atomization_energy=-1248.65 smiles=C.N.O.C.C.C.H.H.H.H.H.H.H pbc="F F F"
C        2.68685905       0.87664963      -1.26890955
N        3.86066848       1.18945952      -0.83604966
O        4.78928813       0.30617988      -1.39809949
C        6.08092743       0.71277972      -0.90884962
C        7.25532706       0.26478989      -1.73505937
C        6.83148725       1.70459933      -1.75482927
H        1.80979926       1.45587944      -0.94271961
H        2.50524893       0.04097999      -1.96527922
H        6.22157738       0.75360969       0.16642994
H        7.05855713      -0.33516987      -2.61536907
H        8.16973668       0.00987999      -1.21360951
H        7.45046693       2.43056897      -1.24240947
H        6.33747766       2.08367923      -2.64141899
