15
Properties=species:S:1:pos:R:3 atomization_energy=-1548.18 smiles=N.C.C.C.C.C.N.H.H.H.H.H.H.H.H pbc="F F F"
N        0.87358968      -0.16292993       0.01844999
C        2.16668927      -0.07894997      -0.00149000
C        2.85303887       1.27725944      -0.05597998
C        4.38983817       1.24122956      -0.03370999
C        5.02906793      -0.11679995      -0.01687999
C        4.29189831      -1.23053955       0.00804000
N        2.93093883      -1.20626957       0.01862999
H        0.46018982       0.77524969      -0.00502000
H        2.48766901       1.87413931       0.78894969
H        2.51172905       1.78510928      -0.96658964
H        4.74248825       1.79723934       0.84389968
H        4.76627805       1.78933936      -0.90633962
H        6.11297753      -0.17689993      -0.02113999
H        4.73574798      -2.22134902       0.02430999
H        2.42858893      -2.08558912       0.04843998
