15
Properties=species:S:1:pos:R:3 atomization_energy=-1421.68 smiles=N.C.C.C.C.O.H.H.H.H.H.H.H.H.H pbc="F F F"
N        1.03882962       0.03250999       0.07960997
C        2.48902908       0.03840998      -0.06594997
C        3.10039870       1.05968959       0.91357963
C        4.15915844      -0.01521999       1.25177953
C        3.11629885      -1.07944952       0.82299966
O        3.62032851      -2.24133920       0.13397995
H        0.60108977      -0.81222965      -0.28837990
H        0.57502975       0.81429965      -0.37945985
H        2.86269887       0.08319997      -1.09353958
H        2.47640898       1.33224949       1.77427935
H        3.49185859       1.97467919       0.45997982
H        5.05137805       0.02176999       0.61673973
H        4.46903839      -0.05113998       2.29921920
H        2.48676895      -1.39493942       1.66648936
H        4.19208843      -1.89557927      -0.57218977
