16
Properties=species:S:1:pos:R:3 atomization_energy=-1608.42 smiles=C.N.C.C.C.C.C.H.H.H.H.H.H.H.H.H pbc="F F F"
C        1.05506959      -0.12546995      -0.02349999
N        2.49526898       0.00436000       0.15423994
C        2.96069877       1.38567949       0.00000000
C        2.48899905       2.24099906       1.14809952
C        1.75712927       3.35720858       1.02913959
C        4.40469846       1.38567949       0.00000000
C        5.59485769       1.38567949       0.00000000
H        0.78245967      -1.18528949       0.01820000
H        0.72753971       0.26497990      -0.99258960
H        0.49954981       0.37711985       0.77481971
H        2.96452891      -0.56315977      -0.54953975
H        2.60527910       1.79044923      -0.95635963
H        2.76993887       1.90180920       2.14400923
H        1.44508937       3.73719851       0.06241998
H        1.45306948       3.91384856       1.91168923
H        6.66008721       1.38399947       0.00858000
