21
Properties=species:S:1:pos:R:3 atomization_energy=-1932.28 smiles=C.C.C.N.C.C.N.H.H.H.H.H.H.H.H.H.H.H.H.H.H pbc="F F F"
C        1.01709960      -0.03168999       0.17917994
C        2.51718899      -0.06685997      -0.13916995
C        2.82275887      -1.01398962      -1.31641948
N        2.26638913      -0.55945978      -2.58776907
C        3.03634870       1.37251941      -0.34754987
C        4.53429832       1.48949943      -0.63919974
N        5.34369775       0.93099964       0.43992983
H        0.83359965       0.53618979       1.09754962
H        0.62704974      -1.04338956       0.33138986
H        0.44104984       0.44013983      -0.62328975
H        3.01495883      -0.48653980       0.74546967
H        2.42455895      -2.01137926      -1.09391958
H        3.90543836      -1.13472950      -1.42855941
H        1.24951953      -0.55605981      -2.53289888
H        2.50529889      -1.23400948      -3.31308871
H        2.80576890       1.96327924       0.54881979
H        2.48772907       1.84878923      -1.16996958
H        4.79072793       2.54823911      -0.76075969
H        4.78854830       0.99303963      -1.58094932
H        5.14776808       1.43374948       1.30430948
H        6.32879747       1.09112956       0.23419992
