13
Properties=species:S:1:pos:R:3 atomization_energy=-1260.78 smiles=O.N.C.C.C.C.H.H.H.H.H.H.H pbc="F F F"
O        0.88815966       1.06672963      -0.98309961
N        2.22803907       0.66548975      -1.06599964
C        2.92116881       1.35666947      -0.22525991
C        4.37063828       1.08987951      -0.14335994
C        5.27919785       1.52176944      -1.26893945
C        5.33531783       2.23387903       0.05089998
H        0.46126983       0.49832982      -1.65163929
H        2.48773891       2.12628927       0.43750982
H        4.61683839       0.15347994       0.34712987
H        4.83823787       2.03923915      -2.11343917
H        6.09919772       0.86434968      -1.53291945
H        6.20054758       2.06490919       0.68199972
H        4.94671811       3.24510865       0.09393996
