15
Properties=species:S:1:pos:R:3 atomization_energy=-1405.97 smiles=C.O.N.C.C.C.H.H.H.H.H.H.H.H.H pbc="F F F"
C        1.61589934      -0.29957987      -0.71807975
O        3.02001883      -0.18492992      -0.51864980
N        3.32061878       1.16057958      -0.26047990
C        4.59217806       1.32556952      -0.05247998
C        5.61045782       0.21306992      -0.09368996
C        5.09723824       2.71997905       0.20929991
H        1.38005945      -1.34752953      -0.91805965
H        1.30465946       0.30272988      -1.57701939
H        1.07839957       0.01783999       0.18070993
H        5.27426780      -0.63347977       0.51105981
H        6.56827749       0.56149975       0.30286989
H        5.75207773      -0.10767996      -1.12932961
H        4.27088820       3.43630863       0.22247992
H        5.80253792       3.00171875      -0.57767980
H        5.60731781       2.74556897       1.17622954
