11
Properties=species:S:1:pos:R:3 atomization_energy=-1253.44 smiles=C.C.C.C.N.C.N.H.H.H.H pbc="F F F"
C        1.39650943      -0.55991978       0.72495969
C        2.28830915      -0.02705999      -0.12479995
C        3.05503887       1.28344950       0.00000000
C        2.69239899       2.07008917       1.15534950
N        2.40332905       2.69710900       2.07626914
C        4.47485816       1.02029961       0.00000000
N        5.60659765       0.81054969       0.00000000
H        0.92304963      -1.51200939       0.50030980
H        1.10935961      -0.08765996       1.66113931
H        2.50065902      -0.58947976      -1.03634958
H        2.81046882       1.86744925      -0.89699964
