15
Properties=species:S:1:pos:R:3 atomization_energy=-1426.32 smiles=N.C.C.O.C.C.H.H.H.H.H.H.H.H.H pbc="F F F"
N        1.41414940      -0.40385984      -0.79837969
C        2.85424880      -0.27030989      -0.51688979
C        3.21218876       1.19950949      -0.20089992
O        2.37335917       1.65613936       0.85945969
C        4.63105827       1.35311943       0.25243990
C        5.57596767       2.02875920      -0.41671983
H        1.20723954      -1.38712952      -0.97802964
H        1.19803954       0.08581997      -1.66777941
H        3.43763866      -0.63843978      -1.36845940
H        3.07846884      -0.90457967       0.34965987
H        3.00594884       1.82701923      -1.07557952
H        1.52299943       1.19503957       0.70887975
H        4.88613792       0.89412963       1.20509951
H        5.36595791       2.52229896      -1.35999949
H        6.58207749       2.11403922      -0.01795999
