17
Properties=species:S:1:pos:R:3 atomization_energy=-1572.81 smiles=C.C.N.C.C.O.H.H.H.H.H.H.H.H.H.H.H pbc="F F F"
C        1.01826960      -0.16550994       0.09177997
C        2.53527913      -0.07214998      -0.06544997
N        2.96295890      -0.87041964      -1.22197947
C        2.97831881       1.39414950      -0.21516991
C        4.49610798       1.55940944      -0.28454989
O        5.01838826       0.99446959      -1.47993947
H        0.68581970       0.39608983       0.97169960
H        0.69971975      -1.20575949       0.22341992
H        0.49679981       0.24012991      -0.78269970
H        3.00524887      -0.49353981       0.83086968
H        2.45147916      -0.55855978      -2.05175920
H        2.67275904      -1.84058923      -1.08247952
H        2.60584886       1.97031928       0.64049975
H        2.52759892       1.82274928      -1.11955960
H        4.98613780       1.08204955       0.57036976
H        4.75930815       2.62162890      -0.27662991
H        4.58589804       0.11565995      -1.56518934
