17
Properties=species:S:1:pos:R:3 atomization_energy=-1665.68 smiles=C.N.C.C.C.C.N.H.H.H.H.H.H.H.H.H.H pbc="F F F"
C        1.05874953      -0.03304999      -0.06725998
N        2.51486906      -0.11251996      -0.12489995
C        3.11543890       1.22668948      -0.04948998
C        4.65547838       1.18781949       0.03118999
C        5.29436801       0.53968982      -1.19843948
C        5.16420797       2.56402899       0.18624993
N        5.55949801       3.64949851       0.30078986
H        0.63660975      -1.04014956      -0.14001994
H        0.65653975       0.56175978      -0.89379964
H        0.72335972       0.39678983       0.88200965
H        2.77775887      -0.56309979      -1.00193961
H        2.73432887       1.74052928       0.84346965
H        2.80228900       1.82039932      -0.91881961
H        4.94962799       0.60937973       0.91650965
H        4.98255823       1.04121957      -2.12175917
H        5.02496805      -0.51823980      -1.27771944
H        6.38793735       0.59494979      -1.14619959
