15
Properties=species:S:1:pos:R:3 atomization_energy=-1482.9 smiles=C.C.C.C.C.N.N.H.H.H.H.H.H.H.H pbc="F F F"
C        0.99999962       0.00000000       0.00000000
C        2.44399905       0.00000000       0.00000000
C        3.63415853       0.00000000       0.00000000
C        5.07815797       0.00000000       0.00000000
C        5.61952761       1.40256941      -0.04397998
N        6.41454770       1.84263929       0.88281963
N        6.80628744       3.11916886       0.66305974
H        0.60600979       1.02088962       0.01165000
H        0.60591977      -0.52047980       0.87826966
H        0.60591977      -0.50030980      -0.88991967
H        5.45731798      -0.52131979      -0.88540963
H        5.47019797      -0.51412979       0.88370967
H        5.32241815       2.02516916      -0.90950966
H        6.87157714       3.60004865       1.56604941
H        7.77821697       3.12298865       0.33777986
