14
Properties=species:S:1:pos:R:3 atomization_energy=-1328.89 smiles=C.C.C.C.N.H.H.H.H.H.H.H.H.H pbc="F F F"
C        0.88810964       0.00914999       0.01917999
C        2.37863895      -0.08422997      -0.01216000
C        3.19574862       0.98218964       0.01301999
C        4.68687798       0.90439964      -0.01334999
N        5.18800785       1.64412941      -1.16069956
H        0.50020981      -0.52206980       0.89372962
H        0.46728982      -0.45297984      -0.87905965
H        0.53820977       1.04521959       0.06604997
H        2.79738898      -1.08643960      -0.06046998
H        2.77312884       1.98357916       0.06502997
H        5.03697801      -0.13254994      -0.06138998
H        5.08545791       1.34655944       0.90568962
H        4.84745806       1.19571947      -2.01026925
H        6.20257733       1.56408943      -1.18811951
