9
Properties=species:S:1:pos:R:3 atomization_energy=-1089.61 smiles=C.C.C.C.N.C.N.H.H pbc="F F F"
C        0.99999962       0.00000000       0.00000000
C        2.19015911       0.00000000       0.00000000
C        3.63415853       0.00000000       0.00000000
C        4.13407848      -0.70737970      -1.15534950
N        4.53256833      -1.27122948      -2.07626914
C        4.11617835       1.36116943       0.00000000
N        4.50038802       2.44615901       0.00000000
H       -0.06531997       0.00325000      -0.00554000
H        3.99107832      -0.50353980       0.90647967
