19
Properties=species:S:1:pos:R:3 atomization_energy=-1789.77 smiles=C.C.N.C.C.C.N.H.H.H.H.H.H.H.H.H.H.H.H pbc="F F F"
C        0.93806964      -0.14912995      -0.11348996
C        2.44021913       0.15704993      -0.07939997
N        3.07090874      -0.47245981      -1.24378946
C        2.83225889       1.62965934      -0.02057999
C        1.93849918       2.63807888      -0.07423997
C        4.32503849       1.85833921       0.15984994
N        4.72885833       3.26218870       0.22450990
H        0.43215983       0.26655990       0.76416969
H        0.76225967      -1.23072956      -0.10587996
H        0.45849983       0.25615990      -1.01191962
H        2.84428878      -0.32297987       0.82089969
H        2.64879892      -0.08761996      -2.08829916
H        2.84375888      -1.46567948      -1.24928953
H        0.87234966       2.47683895      -0.18251994
H        2.24711910       3.67656860       0.01108999
H        4.87473809       1.39160941      -0.66457972
H        4.64451812       1.37021941       1.08750962
H        4.56606834       3.67526860      -0.69254976
H        5.73641754       3.29856882       0.36632985
