14
Properties=species:S:1:pos:R:3 atomization_energy=-1455.97 smiles=C.C.C.C.C.C.H.H.H.H.H.H.H.H pbc="F F F"
C        0.88486964      -0.20198992      -0.11696995
C        2.37543914      -0.02865999       0.12916995
C        2.76812890       1.41944949       0.11537996
C        3.29774874       2.05903921       1.16736956
C        3.65691856       3.43143863       1.09570963
C        3.96074836       4.59163807       1.03780957
H        0.62276975      -1.26486947      -0.11568996
H        0.59083976       0.21684992      -1.08540959
H        0.29509989       0.29307989       0.66197976
H        2.93718882      -0.55283981      -0.65223977
H        2.64043893      -0.49896979       1.08330956
H        2.61298908       1.95667927      -0.81899970
H        3.46593862       1.54212942       2.10821920
H        4.23140845       5.61972796       0.98720958
