19
Properties=species:S:1:pos:R:3 atomization_energy=-1779.55 smiles=C.C.N.C.C.C.N.H.H.H.H.H.H.H.H.H.H.H.H pbc="F F F"
C        2.68301883      -0.99914958      -0.53380980
C        2.23964909       0.34934985       0.01411000
N        3.35888860       1.29473943      -0.05721998
C        3.19957876       2.33437904      -1.07273953
C        2.97867889       2.63858884       0.39018985
C        3.97229832       3.44258864       1.16830949
N        3.54848854       4.83857802       1.16883951
H        1.86331922      -1.72069932      -0.46313983
H        3.52964873      -1.39778950       0.03578999
H        2.97934883      -0.92414966      -1.58439931
H        1.94313929       0.21995992       1.06195956
H        1.34988946       0.68524975      -0.53335977
H        2.33902900       2.30148917      -1.72832932
H        4.11506835       2.67084889      -1.54228939
H        1.96374921       2.78006896       0.74734973
H        4.98016815       3.36356859       0.74801974
H        4.00868852       3.07617868       2.19965912
H        3.61468866       5.20580781       0.22016992
H        4.21067843       5.37922801       1.72560931
