16
Properties=species:S:1:pos:R:3 atomization_energy=-1602.41 smiles=C.C.C.C.C.C.H.H.H.H.H.H.H.H.H.H pbc="F F F"
C        0.99999962       0.00000000       0.00000000
C        2.44399905       0.00000000       0.00000000
C        3.63415853       0.00000000       0.00000000
C        5.07815797       0.00000000       0.00000000
C        5.61779763      -0.75788967      -1.21252953
C        5.61700783       1.42875938       0.01765999
H        0.60600979       1.02087959       0.01165000
H        0.60592973      -0.52053979       0.87823963
H        0.60600979      -0.50029980      -0.88995967
H        5.43699774      -0.50802981       0.90366964
H        5.29717796      -0.29328989      -2.15179920
H        5.26153769      -1.79381924      -1.21715956
H        6.71239750      -0.77980969      -1.20187951
H        5.29845779       1.99076922      -0.86855964
H        6.71245756       1.43260945       0.04431998
H        5.25913802       1.97304926       0.89980967
