19
Properties=species:S:1:pos:R:3 atomization_energy=-1924.91 smiles=C.C.C.C.C.C.C.H.H.H.H.H.H.H.H.H.H.H.H pbc="F F F"
C        0.96641963       0.00225000      -0.05304998
C        2.50782902      -0.00056000      -0.00226000
C        2.95705890      -0.00139000       1.46095937
C        3.06426889      -1.22292949      -0.76829972
C        3.33233881      -0.67021976      -2.13239922
C        3.33420859       0.66660972      -2.13237929
C        3.06868873       1.21998958      -0.76824970
H        0.59265976       0.00382000      -1.08292955
H        0.55945978       0.88724962       0.44884984
H        0.55632980      -0.88215966       0.44732982
H        4.04971834      -0.00416000       1.54116942
H        2.58330887      -0.88665968       1.98701920
H        2.58788893       0.88602967       1.98664928
H        2.34471907      -2.04701915      -0.80850966
H        3.99917841      -1.59851940      -0.33741988
H        3.53367871      -1.28674949      -2.99731885
H        3.53826862       1.28229951      -2.99723886
H        4.00499843       1.59212936      -0.33729986
H        2.35216915       2.04672923      -0.80828969
