20
Properties=species:S:1:pos:R:3 atomization_energy=-1921.45 smiles=C.C.N.C.C.C.C.H.H.H.H.H.H.H.H.H.H.H.H.H pbc="F F F"
C        2.75040894      -2.08271923       0.49249980
C        2.91221887      -0.83456967      -0.37834984
N        1.58112936      -0.32134988      -0.73312973
C        3.72101853       0.27429988       0.33001985
C        5.16946807      -0.08242996       0.59413975
C        6.11854749       0.07123997      -0.56138980
C        5.59388773      -0.47435980       1.80735934
H        3.71754846      -2.55704900       0.68848975
H        2.12040920      -2.83087889      -0.00296000
H        2.28910904      -1.84116933       1.45728946
H        3.41531870      -1.11907954      -1.30952946
H        1.07331952      -0.07235997       0.11545995
H        1.03864958      -1.06253955      -1.17621957
H        3.22668873       0.53915979       1.27467948
H        3.70039852       1.19032955      -0.27649989
H        5.79664750      -0.53739978      -1.41145942
H        7.13656735      -0.23721991      -0.29998988
H        6.15998735       1.11872955      -0.87858968
H        4.90851818      -0.57133979       2.64363900
H        6.63596737      -0.71341969       1.99610918
