22
Properties=species:S:1:pos:R:3 atomization_energy=-2063.98 smiles=C.C.C.C.C.C.N.H.H.H.H.H.H.H.H.H.H.H.H.H.H.H pbc="F F F"
C        1.09060963       0.04521998      -0.64019973
C        2.59436905       0.21375992      -0.49185979
C        2.96718873       1.66306939      -0.17611993
C        4.48424841       1.82597924      -0.02537999
C        4.90361791       3.26292879       0.32617988
C        6.40919727       3.33729864       0.57848978
N        4.54073831       4.18925828      -0.74707967
H        0.84743964      -0.99541962      -0.87546967
H        0.70287969       0.67541974      -1.44675943
H        0.57298978       0.31444988       0.28577988
H        3.08471883      -0.10188996      -1.42032949
H        2.95374882      -0.44675984       0.30596988
H        2.47202901       1.97569924       0.75123974
H        2.59497893       2.31215900      -0.97715961
H        4.97974827       1.50637937      -0.95165964
H        4.83444786       1.14963950       0.76522967
H        4.38222836       3.57376860       1.23899946
H        6.98146740       3.03613876      -0.30637989
H        6.69544740       2.67736888       1.40473946
H        6.71350725       4.35500838       0.84817966
H        5.02074806       3.92606845      -1.60710938
H        4.86759813       5.12695782      -0.51720981
