20
Properties=species:S:1:pos:R:3 atomization_energy=-1911.24 smiles=C.N.C.C.C.C.C.H.H.H.H.H.H.H.H.H.H.H.H.H pbc="F F F"
C        2.47961914      -1.12633961       0.45630982
N        2.31102906       0.10500995       1.21239958
C        2.90426893       1.28325950       0.55709979
C        2.41432893       2.51256906       1.33331950
C        4.45083823       1.23014957       0.50399980
C        5.06972808       2.40580897      -0.20435991
C        5.97160743       3.22729861       0.34903986
H        1.88929925      -1.92006928       0.92535966
H        3.52140860      -1.46008946       0.44285984
H        2.12238924      -1.01888958      -0.57285977
H        2.70282885      -0.00823000       2.14676923
H        2.50608894       1.36024943      -0.46318982
H        2.80853899       2.52540894       2.35597910
H        1.31968945       2.52754896       1.39332942
H        2.71952889       3.44180869       0.84105969
H        4.77348816       0.33356987      -0.03822998
H        4.85224832       1.14101961       1.52193938
H        4.76226800       2.57705887      -1.23416946
H        6.31575749       3.09364883       1.37011949
H        6.38773750       4.05638847      -0.21503992
