15
Properties=species:S:1:pos:R:3 atomization_energy=-1414.65 smiles=C.N.C.C.C.O.H.H.H.H.H.H.H.H.H pbc="F F F"
C        2.88757898      -1.16088956      -0.47806983
N        2.34446900       0.06491997       0.09239996
C        3.35840866       1.12514962       0.18532993
C        3.56320854       2.05230915      -0.97886959
C        2.91127894       2.56210900       0.27041991
O        3.72297863       3.41835853       1.08816959
H        2.09829918      -1.91627926      -0.54326976
H        3.69484849      -1.56519943       0.14133995
H        3.26808871      -0.99016962      -1.49043936
H        1.97315927      -0.13787995       1.02103957
H        4.23830820       0.87028969       0.77349970
H        2.94004874       1.92016920      -1.85494927
H        4.57673841       2.36626916      -1.19595957
H        1.84401929       2.75747900       0.23805990
H        3.61881856       4.34782804       0.82147967
