20
Properties=species:S:1:pos:R:3 atomization_energy=-1904.2 smiles=C.N.C.C.C.C.C.H.H.H.H.H.H.H.H.H.H.H.H.H pbc="F F F"
C        1.37713947      -0.45865981      -0.01648000
N        2.82853877      -0.33074988      -0.17286993
C        3.21429875      -0.73314973      -1.52708933
C        3.23887885       1.04788957       0.12835995
C        4.73379797       1.17093954       0.17933993
C        5.50499799       1.76031937      -0.97699962
C        5.36881784       2.53429907       0.30306987
H        1.07480953      -0.21023991       1.00690959
H        1.05967962      -1.49251945      -0.19224992
H        0.82820966       0.19269993      -0.70653969
H        2.86012887      -1.74814931      -1.74111936
H        4.30303823      -0.76764972      -1.63466938
H        2.80832880      -0.06088998      -2.29116907
H        2.86452877       1.32525953       1.12195952
H        2.80535886       1.75803931      -0.58783979
H        5.19044790       0.36986987       0.75143971
H        4.95590802       2.11144917      -1.84316931
H        6.47000759       1.32562945      -1.21121956
H        6.24509767       2.62762909       0.93467964
H        4.72806803       3.40845857       0.30304987
