15
Properties=species:S:1:pos:R:3 atomization_energy=-1411.62 smiles=C.N.C.C.O.C.H.H.H.H.H.H.H.H.H pbc="F F F"
C        1.05990962      -0.00218000       0.07238997
N        2.51470908       0.02270999      -0.02992999
C        3.08727873       1.02401960       0.91174967
C        4.18948841      -0.01769999       1.23833949
O        5.38771795       0.03917998       0.42773983
C        3.11578888      -1.05144958       0.80812971
H        0.66272975      -0.85940966      -0.48237980
H        0.63922977       0.90189966      -0.38124985
H        0.69003975      -0.06619997       1.10303960
H        2.46591907       1.29097945       1.77615934
H        3.43712870       1.94305918       0.43201982
H        4.46324839      -0.06653998       2.29692904
H        5.03842790       0.07922997      -0.48260981
H        3.49006856      -1.90828919       0.23981990
H        2.50353913      -1.42013949       1.64107935
