17
Properties=species:S:1:pos:R:3 atomization_energy=-1640.49 smiles=C.N.N.C.C.C.C.H.H.H.H.H.H.H.H.H.H pbc="F F F"
C        2.26916907      -1.18522956      -0.14724994
N        3.49666853      -0.52645980       0.28322988
N        3.60926858       0.77654969      -0.07222997
C        4.75729808       1.29494950       0.22702991
C        5.06140822       2.70849898      -0.07677997
C        6.25597770       3.22454870       0.23911990
C        6.63968724       4.64169807      -0.03783999
H        2.28883905      -2.23761908       0.15155994
H        2.16947904      -1.14677958      -1.23696946
H        1.39105945      -0.71376974       0.30575988
H        3.59116861      -0.64367975       1.29479949
H        5.56110788       0.71300972       0.71551972
H        4.27698856       3.28028868      -0.55994981
H        7.01410746       2.61062903       0.72084971
H        5.83403794       5.20151817      -0.52420980
H        7.51721713       4.66950800      -0.69118975
H        6.89127715       5.14961818       0.89833965
