10
Properties=species:S:1:pos:R:3 atomization_energy=-1010.86 smiles=C.C.C.C.H.H.H.H.H.H pbc="F F F"
C        0.99999962       0.00000000       0.00000000
C        2.44399905       0.00000000       0.00000000
C        3.63415853       0.00000000       0.00000000
C        5.07815797       0.00000000       0.00000000
H        0.60608978       1.02032957       0.01166999
H        0.60608978      -0.52026980       0.87778966
H        0.60608978      -0.50005980      -0.88946964
H        5.47206775       1.02032957      -0.01166999
H        5.47206775      -0.52026980      -0.87778966
H        5.47206775      -0.50005980       0.88946964
