19
Properties=species:S:1:pos:R:3 atomization_energy=-1926.32 smiles=C.C.C.C.C.C.C.H.H.H.H.H.H.H.H.H.H.H.H pbc="F F F"
C        0.99862959      -0.00415000       0.01090999
C        2.52919895      -0.00225000      -0.04102999
C        3.06383867      -1.23038954      -0.79658972
C        3.33279881      -0.69472971      -2.16446926
C        3.32868859       0.64421974      -2.18348923
C        3.59528867       1.51427936      -3.35787877
C        3.05814886       1.21180950      -0.82339966
H        0.63118973       0.88222962       0.53828982
H        0.63232976      -0.88722963       0.54448978
H        0.55673977      -0.00756000      -0.99182964
H        2.90263887       0.00927000       0.98942959
H        2.34333907      -2.05352917      -0.81910965
H        3.99744842      -1.59353939      -0.35292986
H        3.53585860      -1.32528943      -3.02004885
H        3.56242858       2.57210889      -3.07775878
H        2.84233876       1.35207944      -4.13615845
H        4.58615845       1.31075944      -3.77454858
H        3.99158854       1.58454933      -0.38600986
H        2.33262912       2.03047922      -0.85454964
