17
Properties=species:S:1:pos:R:3 atomization_energy=-1648.21 smiles=N.C.C.C.C.C.N.H.H.H.H.H.H.H.H.H.H pbc="F F F"
N        1.07271959      -0.00479000       0.01547999
C        2.54294899      -0.00353000       0.05327998
C        3.17441881      -0.97509964      -0.99868958
C        4.68190806      -0.74989973      -0.85741966
C        4.67775822       0.78175971      -0.83629966
C        3.16828867       1.00190958      -0.96981960
N        2.72707889       0.02580999      -2.05357914
H        0.63672973       0.73064969       0.56260976
H        0.64667972      -0.88602967       0.28478989
H        2.95878888      -0.02565999       1.06482958
H        2.79253892      -1.99254916      -1.08746962
H        5.08110822      -1.17471959       0.06880998
H        5.24416771      -1.14840951      -1.70781933
H        5.23578779       1.20659950      -1.67618935
H        5.07502805       1.18349958       0.10048996
H        2.77968895       2.01837918      -1.03122959
H        3.28942862       0.04102999      -2.90085892
