17
Properties=species:S:1:pos:R:3 atomization_energy=-1790.95 smiles=C.C.C.C.C.C.C.H.H.H.H.H.H.H.H.H.H pbc="F F F"
C        0.88000967      -0.03817999      -0.15755994
C        2.20819903      -0.00902000       0.02846999
C        2.94785890       1.27676954       0.32175989
C        4.33461850       1.29182955      -0.32136987
C        5.14801789       0.05921998       0.07862997
C        4.34168831      -1.20469957       0.01002000
C        3.00136877      -1.22212948      -0.03530999
H        0.28490990       0.86796969      -0.10385996
H        0.34830987      -0.96156963      -0.36517985
H        2.37959907       2.14466908      -0.03435999
H        3.05267882       1.38436951       1.40908940
H        4.87397807       2.20120920      -0.03214998
H        4.22940823       1.32014945      -1.41410940
H        5.53017762       0.17538994       1.09968952
H        6.01657740      -0.02520999      -0.58404978
H        4.88894788      -2.14333904      -0.01553000
H        2.48201906      -2.17395919      -0.11820996
