11
Properties=species:S:1:pos:R:3 atomization_energy=-1262.53 smiles=C.C.C.C.N.C.N.H.H.H.H pbc="F F F"
C        1.06771953       0.28638989       0.11378996
C        2.39216895       0.09584996      -0.02791999
C        3.01663885      -1.27637943      -0.01882999
C        3.47569855      -1.65467938      -1.36314947
N        3.83170843      -1.96655917      -2.42265914
C        3.25830861       1.22702950      -0.13971995
N        3.97041845       2.13962926      -0.21070991
H        0.63332975       1.28391947       0.12239995
H        0.37577984      -0.54453981       0.21740992
H        2.29915914      -2.02454918       0.34015985
H        3.85689840      -1.29672945       0.68585976
