16
Properties=species:S:1:pos:R:3 atomization_energy=-1617.78 smiles=C.C.C.C.N.C.C.H.H.H.H.H.H.H.H.H pbc="F F F"
C        0.76336968       0.07944997       0.07462998
C        2.24250901       0.03519999       0.29004989
C        3.09501874       0.95623964      -0.19568992
C        4.59462819       1.02318962      -0.04489998
N        5.15283792      -0.02419999       0.79555970
C        5.21407771       0.94865961      -1.37778947
C        5.72506768       0.88754965      -2.46355901
H        0.43632982      -0.82505968      -0.44721984
H        0.45544981       0.94603965      -0.51880978
H        0.24841990       0.12593995       1.03903962
H        2.60536893      -0.80890967       0.86971967
H        2.67811905       1.78229932      -0.77280970
H        4.84303822       1.98891925       0.41044984
H        4.95020785      -0.92273964       0.36373986
H        4.67721823      -0.00839000       1.69325931
H        6.18365754       0.82901965      -3.42342863
