17
Properties=species:S:1:pos:R:3 atomization_energy=-1559.8 smiles=C.O.C.C.C.N.H.H.H.H.H.H.H.H.H.H.H pbc="F F F"
C        1.87092928      -0.39291985       1.08809956
O        3.13519871       0.25650989       1.13524955
C        3.15598878       1.51759941       0.44151984
C        2.41626911       2.58603909       1.24210957
C        4.63344835       1.92429923       0.26330989
N        5.35630775       0.94782963      -0.56205980
H        1.99309924      -1.40192950       1.48944946
H        1.50735943      -0.47032982       0.06008997
H        1.14369950       0.13374995       1.71038932
H        2.69338888       1.40277948      -0.54733980
H        2.79025885       2.63398884       2.27032904
H        1.34623949       2.36198912       1.30323947
H        2.52378897       3.57237851       0.78015967
H        5.12355791       1.97050916       1.24274948
H        4.70949796       2.90968875      -0.20686992
H        5.15368778       0.02149999      -0.17541993
H        6.35847768       1.08965960      -0.44418981
