16
Properties=species:S:1:pos:R:3 atomization_energy=-1604.1 smiles=C.C.C.N.C.C.C.H.H.H.H.H.H.H.H.H pbc="F F F"
C        3.55228865      -1.23116950      -2.32729913
C        3.58927865      -0.67489975      -1.27578948
C        3.63415853       0.00000000       0.00000000
N        4.47343803       1.19937954      -0.06825998
C        3.74442855       2.33033896      -0.70666971
C        4.34374835       3.23794875       0.38296983
C        4.42063822       1.94305918       1.21588957
H        3.52816856      -1.72480930      -3.27107884
H        4.06661848      -0.68140971       0.74331969
H        2.61522902       0.22186991       0.34360985
H        2.64849890       2.27734915      -0.67712973
H        4.06054840       2.56034899      -1.72848930
H        5.32066799       3.66407846       0.12585996
H        3.69326865       4.02527829       0.77054970
H        5.31389794       1.84375926       1.83954924
H        3.53304864       1.76977927       1.83786922
