7
Properties=species:S:1:pos:R:3 atomization_energy=-857.15 smiles=O.C.C.C.C.N.H pbc="F F F"
O        0.94285965      -0.04561998       0.00000000
C        2.16464917      -0.05036998       0.00000000
C        2.90047891       1.18551949       0.00000000
C        3.50486854       2.22293921       0.00000000
C        4.27415841       3.54835859       0.00000000
N        4.86764809       4.54582834       0.00000000
H        2.76793889      -0.97169960       0.00000000
