19
Properties=species:S:1:pos:R:3 atomization_energy=-1809.1 smiles=N.C.C.C.C.C.N.H.H.H.H.H.H.H.H.H.H.H.H pbc="F F F"
N        1.03986960       0.01561999      -0.12910995
C        2.48951911       0.01535000       0.01810999
C        2.98111894       1.11406950       0.95326964
C        4.41641823       0.68727975       1.22856948
C        4.36294823      -0.83696966       1.34087947
C        3.04533875      -1.26973946       0.67738976
N        3.23471866      -2.37033902      -0.26727989
H        0.75282967      -0.74279970      -0.74385967
H        0.73569972       0.88387968      -0.56655975
H        2.94318875       0.15777994      -0.97184961
H        2.40741910       1.13110956       1.88834922
H        2.92758888       2.10817920       0.49852979
H        5.05634796       0.97034963       0.38348986
H        4.82667808       1.15601957       2.12768921
H        5.25018783      -1.28668944       0.88216963
H        4.35943831      -1.14193961       2.39431906
H        2.36073907      -1.61377938       1.46403945
H        3.86365836      -2.08018923      -1.01469962
H        2.34360906      -2.57807905      -0.71370975
