17
Properties=species:S:1:pos:R:3 atomization_energy=-1779.67 smiles=C.C.C.C.C.C.C.H.H.H.H.H.H.H.H.H.H pbc="F F F"
C        0.83827970      -0.01743999       0.01527000
C        2.18375923      -0.02031999       0.00647000
C        2.92949877       1.29091952      -0.06340997
C        4.46447825       1.26374950      -0.03366999
C        5.10773775      -0.08158997      -0.02129999
C        4.41899807      -1.22788957       0.01754999
C        2.92794895      -1.33062952       0.05344998
H        0.27264988       0.90900966      -0.02362999
H        0.26845989      -0.94114960       0.05826998
H        2.59085887       1.92832922       0.76535969
H        2.62255899       1.81011934      -0.98214958
H        4.81200804       1.81767931       0.84734968
H        4.84139807       1.81747934      -0.90263962
H        6.19404753      -0.11177996      -0.03978999
H        4.96472800      -2.16836904       0.02966999
H        2.61450887      -1.94980929      -0.79660972
H        2.65089907      -1.86627932       0.97044961
