17
Properties=species:S:1:pos:R:3 atomization_energy=-1662.72 smiles=C.N.C.C.N.C.C.H.H.H.H.H.H.H.H.H.H pbc="F F F"
C        1.13839953      -0.25594989      -0.04296998
N        2.54182889       0.11435995      -0.11643995
C        2.87975898       1.36498947      -0.05580998
C        1.89023931       2.50507911       0.08515997
N        4.22690838       1.63613934      -0.09248996
C        4.93151818       2.80170889       0.02428999
C        6.26089765       2.92905896      -0.02380999
H        1.06309960      -1.34570947       0.03095999
H        0.60068976       0.04627998      -0.94685960
H        0.64955976       0.16015993       0.84386966
H        0.89089966       2.23540916      -0.26042989
H        2.21146924       3.36466875      -0.50965981
H        1.83583934       2.79807885       1.13765957
H        4.78571815       0.79439967      -0.19165992
H        4.32222853       3.68906859       0.17351993
H        6.91292717       2.07459921      -0.16836994
H        6.72623736       3.90391856       0.08024997
