19
Properties=species:S:1:pos:R:3 atomization_energy=-1779.04 smiles=C.C.N.N.C.C.C.H.H.H.H.H.H.H.H.H.H.H.H pbc="F F F"
C        3.55584854       5.02592792      -2.79111880
C        3.80184855       4.65128817      -1.33851941
N        4.85514811       3.63793846      -1.24743956
N        5.16249818       3.23439871       0.00723000
C        6.15797778       2.40839915       0.05250998
C        6.62882741       1.85072928       1.36697948
C        6.40238736       0.35190988       1.40386942
H        2.77240894       5.78737786      -2.85577893
H        3.23148882       4.15863839      -3.37483871
H        4.46099810       5.43244770      -3.25324861
H        2.87406891       4.26793845      -0.89755963
H        4.09758836       5.54576765      -0.77803971
H        4.60813801       2.84757892      -1.84736924
H        6.69983746       2.07805918      -0.85338967
H        6.09504738       2.33628918       2.19044903
H        7.69597717       2.07186924       1.46554940
H        5.33938793       0.11300995       1.29503946
H        6.75338720      -0.06460997       2.35304903
H        6.93967731      -0.14757994       0.59050977
