17
Properties=species:S:1:pos:R:3 atomization_energy=-1630.44 smiles=C.C.C.C.N.N.C.H.H.H.H.H.H.H.H.H.H pbc="F F F"
C        2.60778903      -1.71085929       1.54878945
C        2.88280891      -1.09187961       0.20810992
C        3.02079878      -1.83886933      -0.89986966
C        2.96124886       0.41620984       0.16931993
N        4.21451841       0.88377963       0.77142971
N        4.38036817       2.22893914       0.80805969
C        5.40516767       2.59061890       1.50509943
H        1.64906929      -1.35455948       1.94131923
H        3.39488870      -1.45423941       2.26514918
H        2.55570887      -2.80332885       1.49200936
H        2.95278895      -2.92226872      -0.86797965
H        3.21134875      -1.38740948      -1.86988930
H        2.10582912       0.83694966       0.71279972
H        2.89252897       0.78297966      -0.86362965
H        4.97911795       0.43516982       0.26022990
H        5.64500802       3.66092861       1.60393934
H        6.07037746       1.88159924       2.02961915
