19
Properties=species:S:1:pos:R:3 atomization_energy=-1791.28 smiles=C.C.C.N.C.C.N.H.H.H.H.H.H.H.H.H.H.H.H pbc="F F F"
C        1.11111962       0.06317997      -0.09517997
C        2.59944898      -0.17131993       0.00442000
C        3.02973888      -1.60103943      -0.19334993
N        2.53788899      -2.44059914       0.88934965
C        3.42979873       0.87080968       0.21902992
C        4.91852816       0.87011968       0.34783987
N        5.48808776       1.70109937      -0.70136974
H        0.85256966       1.12591961      -0.02750999
H        0.58132977      -0.45457981       0.71106973
H        0.73254969      -0.30461988      -1.05490961
H        4.11485841      -1.70858932      -0.25861990
H        2.62937900      -1.96843916      -1.14525953
H        2.94061876      -2.11412917       1.76609927
H        2.87604895      -3.39090868       0.75480972
H        2.98898889       1.86275930       0.33368986
H        5.35563807      -0.12937995       0.29923989
H        5.18781810       1.28958948       1.32334951
H        5.26593784       1.28750951      -1.60539933
H        6.50293732       1.68701929      -0.62419978
