16
Properties=species:S:1:pos:R:3 atomization_energy=-1466.4 smiles=C.C.N.C.C.H.H.H.H.H.H.H.H.H.H.H pbc="F F F"
C        1.10802957      -0.14301994       0.09731996
C        2.62834898      -0.10956996       0.06105998
N        3.09177881       1.27490948      -0.01074000
C        4.55148813       1.34213949      -0.03544999
C        4.99887801       2.79401884      -0.10668996
H        0.75496970      -1.17836956       0.13813995
H        0.68026974       0.32413987      -0.79606966
H        0.72021971       0.38011985       0.97778961
H        2.97525879      -0.67126971      -0.81381965
H        3.01938875      -0.60094979       0.95959962
H        2.73736896       1.79751931       0.79002967
H        4.94120820       0.80753970      -0.90887965
H        4.97373824       0.88051963       0.86437965
H        4.61252807       3.28401863      -1.00708962
H        6.09194774       2.85079892      -0.13514995
H        4.65504841       3.35948865       0.76626972
