17
Properties=species:S:1:pos:R:3 atomization_energy=-1626.31 smiles=C.N.N.C.C.C.C.H.H.H.H.H.H.H.H.H.H pbc="F F F"
C        1.11957953       0.66745977      -0.87080968
N        2.23285911       0.45646983      -0.24978990
N        3.07019868       1.52403941      -0.28395988
C        4.42970802       1.26891951       0.19662992
C        5.22988778       2.52490907       0.02775999
C        5.40737809       3.49246873       1.17262953
C        6.56943721       2.65951896       0.70859973
H        0.36083985      -0.12895995      -0.90809963
H        0.87539965       1.61292940      -1.38614946
H        2.68816890       2.30744898       0.25256990
H        4.88923806       0.46980983      -0.39254984
H        4.40572847       0.95081963       1.24421956
H        5.16053806       2.92349884      -0.97976959
H        4.96874814       3.25174875       2.13460914
H        5.42117809       4.55273818       0.94499961
H        7.36554686       3.15400874       0.16273994
H        6.90854720       1.85302928       1.34966943
