18
Properties=species:S:1:pos:R:3 atomization_energy=-1767.83 smiles=C.C.C.N.C.C.C.H.H.H.H.H.H.H.H.H.H.H pbc="F F F"
C        0.97626964      -0.10708996      -0.03858998
C        2.49089911      -0.00628000       0.09656997
C        3.02738892       1.43281939       0.00000000
N        2.55828896       2.26610905       1.10428952
C        4.47138809       1.43281939       0.00000000
C        5.66154783       1.43281939       0.00000000
C        7.10554726       1.43281939       0.00000000
H        0.67278976      -1.15843955      -0.06129997
H        0.63399976       0.36388987      -0.96403964
H        0.46480982       0.36570984       0.80350971
H        2.94502875      -0.61504974      -0.69838971
H        2.79793880      -0.46889982       1.04537957
H        2.67002907       1.87975923      -0.93521963
H        2.86804879       1.85446921       1.98295919
H        1.54238944       2.26929902       1.12837958
H        7.49958725       2.45366914      -0.01167999
H        7.49956706       0.91220966      -0.87821964
H        7.49950701       0.93249962       0.88995967
