15
Properties=species:S:1:pos:R:3 atomization_energy=-1506.04 smiles=C.C.C.C.N.N.C.H.H.H.H.H.H.H.H pbc="F F F"
C        0.65273977       0.13824995      -0.01009999
C        2.12549922       0.00442000       0.20199993
C        3.00122873       0.98474960      -0.05484998
C        4.44358826       0.77218973       0.18209993
N        5.31289770       1.70034931      -0.05659998
N        6.59855724       1.26205951       0.24413990
C        7.46103709       2.19042910       0.00240000
H        0.30856987      -0.61868974      -0.72125969
H        0.37894985       1.12338960      -0.40064983
H        0.12485995      -0.01290999       0.93627961
H        2.46758900      -0.95500965       0.58653978
H        2.70796883       1.95547918      -0.43783983
H        4.74057811      -0.21820992       0.57251975
H        8.53065667       2.00666924       0.18688993
H        7.18343738       3.18408865      -0.38866984
