17
Properties=species:S:1:pos:R:3 atomization_energy=-1562.62 smiles=C.N.C.C.C.O.H.H.H.H.H.H.H.H.H.H.H pbc="F F F"
C        3.86387839       0.75133972       2.69986900
N        3.51782853       0.47528980       1.31056944
C        3.57299848       1.65136929       0.41277984
C        2.60105886       2.76584883       0.79534970
C        5.01023796       2.18523915       0.24402990
O        5.88707747       1.10550954      -0.07179997
H        3.79681858      -0.17923993       3.27384868
H        3.17910864       1.46817945       3.16301874
H        4.89122794       1.11310951       2.80224888
H        2.57089896       0.09327997       1.28382951
H        3.26458863       1.26809956      -0.56921976
H        2.89005889       3.26007871       1.72794931
H        1.58448940       2.37607905       0.91270966
H        2.57284898       3.53067850       0.01181000
H        5.37556770       2.66940883       1.15496949
H        5.06074812       2.91375885      -0.57118977
H        5.50795783       0.33402987       0.39808984
