13
Properties=species:S:1:pos:R:3 atomization_energy=-1346.38 smiles=C.C.C.C.N.N.C.H.H.H.H.H.H pbc="F F F"
C        0.99999962       0.00000000       0.00000000
C        2.44399905       0.00000000       0.00000000
C        3.63415853       0.00000000       0.00000000
C        5.06941822      -0.02734999      -0.00754000
N        5.59045804       1.10664957       0.30551988
N        6.98224710       1.03022960       0.28443987
C        7.50122690       2.16922924       0.59888976
H        0.60595976       1.02086963       0.01174000
H        0.60591977      -0.52056979       0.87822967
H        0.60590973      -0.50024981      -0.88994963
H        5.61267783      -0.95031963      -0.26233990
H        8.59569656       2.28247904       0.63016975
H        6.89763741       3.05936887       0.84462968
