22
Properties=species:S:1:pos:R:3 atomization_energy=-2055.34 smiles=C.C.C.C.C.N.C.H.H.H.H.H.H.H.H.H.H.H.H.H.H.H pbc="F F F"
C        0.95128960      -0.52012979       0.09516996
C        2.23878914      -0.31912987       0.88265966
C        2.68352904       1.15725953       0.99612962
C        1.60663942       2.07417921       1.61730937
C        1.21320957       1.72394935       3.04649872
N        3.95486854       1.17306959       1.74473931
C        4.61871826       2.47012896       1.72992935
H        0.77004971      -1.58901937      -0.05861998
H        1.01079959      -0.04193998      -0.88735964
H        0.08591997      -0.11633995       0.62874975
H        3.02911890      -0.89178963       0.37904984
H        2.12200923      -0.76701971       1.87711922
H        2.87833886       1.51421943      -0.02468999
H        0.70712971       2.05994924       0.99082959
H        1.94871922       3.11570889       1.59429941
H        0.76514968       0.72816972       3.10664869
H        0.47251980       2.44158903       3.41383878
H        2.07371921       1.75942927       3.72073844
H        4.58752810       0.48280981       1.33938945
H        4.06840851       3.21443880       2.31238912
H        4.76510824       2.84015887       0.71046969
H        5.60551768       2.37323906       2.19431904
