21
Properties=species:S:1:pos:R:3 atomization_energy=-1927.35 smiles=C.N.C.C.C.C.N.H.H.H.H.H.H.H.H.H.H.H.H.H.H pbc="F F F"
C        1.25720945      -0.16919994       0.31548987
N        2.69309896       0.04064999       0.18967993
C        3.08148874       1.46998942       0.23509990
C        2.61794890       2.17869923       1.51241943
C        4.62811810       1.62034933       0.02982999
C        5.45850797       1.08960952       1.20224956
N        5.05928813       0.92564965      -1.20209955
H        1.02810958      -1.21985950       0.11328995
H        0.69171971       0.43911982      -0.39862983
H        0.90876963       0.04235998       1.33035952
H        2.98542875      -0.30104990      -0.72818972
H        2.60055899       1.97415926      -0.61479974
H        2.91177881       1.62981932       2.41336907
H        1.52885944       2.29048904       1.52984934
H        3.04407887       3.18584865       1.57218939
H        4.85124807       2.68614899      -0.09806996
H        5.27320801       0.02560999       1.38682949
H        5.23967773       1.63684940       2.12511921
H        6.53072758       1.21219949       1.00729963
H        5.00611790      -0.07920997      -1.02789957
H        6.05041755       1.11391961      -1.35309949
