20
Properties=species:S:1:pos:R:3 atomization_energy=-1915.66 smiles=C.C.C.N.C.C.C.H.H.H.H.H.H.H.H.H.H.H.H.H pbc="F F F"
C        3.07329882      -0.65481973      -1.09004958
C        2.53063901      -0.00560000       0.17602993
C        3.11849867       1.39029943       0.43233983
N        2.49503911       1.98298922       1.61554936
C        4.59995844       1.34872949       0.70097970
C        5.58103801       1.75137928      -0.37452986
C        5.39560785       2.62708884       0.83013968
H        2.57269910      -1.61299943      -1.26399956
H        4.14681844      -0.85126965      -1.01032962
H        2.90051878      -0.01867999      -1.96377923
H        2.73202887      -0.67027976       1.02584957
H        1.43976947       0.06861997       0.08210997
H        2.90423890       2.03920925      -0.42539984
H        2.65699893       1.38225939       2.42171896
H        1.48564935       2.01503920       1.48509940
H        4.88146827       0.53480979       1.36104944
H        5.20105792       2.11739914      -1.32188952
H        6.50418737       1.18924958      -0.45589981
H        6.18463759       2.65380896       1.57245938
H        4.87156831       3.56839849       0.70841975
