17
Properties=species:S:1:pos:R:3 atomization_energy=-1630.2 smiles=C.C.N.C.N.C.C.H.H.H.H.H.H.H.H.H.H pbc="F F F"
C        0.95649960      -0.12952995      -0.00796000
C        2.48796903      -0.06555997      -0.04237999
N        2.94438884      -0.81140970      -1.23084954
C        3.02115886       1.41382944      -0.01242000
N        2.54286900       2.18637918       1.13774953
C        4.49740799       1.44685948       0.01729000
C        5.69818784       1.47986945       0.04269999
H        0.56233976       0.26712989       0.93288966
H        0.60283975      -1.16437955      -0.08428996
H        0.51422981       0.43996983      -0.83286965
H        2.87248882      -0.59668974       0.83809966
H        2.61535897      -0.35189985      -2.07895924
H        2.54271911      -1.74756932      -1.23120949
H        2.67925884       1.92703930      -0.92004966
H        2.83710895       1.71741927       1.99267924
H        1.52760939       2.20965901       1.14611960
H        6.76262757       1.50893940       0.06302998
