11
Properties=species:S:1:pos:R:3 atomization_energy=-1153.89 smiles=C.O.C.C.C.N.H.H.H.H.H pbc="F F F"
C        1.04819956      -0.13061994      -0.21597991
O        2.46866897      -0.06210998      -0.20084992
C        3.06149881       1.16826950       0.00000000
C        2.40798911       2.32895896       0.18883992
C        4.46749816       1.16826950       0.00000000
N        5.61850769       1.16826950       0.00000000
H        0.76401968      -1.17307956      -0.38646986
H        0.63571977       0.46873982      -1.03384961
H        0.63064974       0.17880992       0.74742972
H        1.32827943       2.40770902       0.20148992
H        2.95303876       3.25818875       0.34023987
