15
Properties=species:S:1:pos:R:3 atomization_energy=-1398.26 smiles=C.C.C.O.N.C.H.H.H.H.H.H.H.H.H pbc="F F F"
C        0.86088965      -0.00323000       0.43276984
C        2.35527913      -0.05695998       0.17239994
C        2.99065882       1.32581946       0.23060990
O        4.38965850       1.18971954      -0.02394999
N        4.97891810       2.46025903       0.03878999
C        6.24109772       2.33881905      -0.19178992
H        0.43169983      -1.00910960       0.38861985
H        0.35420987       0.61524978      -0.31517987
H        0.64958973       0.41296985       1.42311939
H        2.54647910      -0.50816979      -0.80820970
H        2.83760881      -0.71367972       0.90579963
H        2.84497890       1.77230927       1.22144957
H        2.54779905       1.98305924      -0.52699979
H        6.88926708       3.22934880      -0.18753992
H        6.72358738       1.36866947      -0.39889986
