15
Properties=species:S:1:pos:R:3 atomization_energy=-1501.13 smiles=C.C.N.C.N.C.C.H.H.H.H.H.H.H.H pbc="F F F"
C        1.06182961      -0.06336998       0.44395981
C        2.51999896       0.00000000       0.00000000
N        2.64461906      -0.54401975      -1.33670944
C        2.79619898      -1.86078922      -1.60362936
N        2.73991902      -2.39075917      -2.77062899
C        3.00201878       1.36116943       0.00000000
C        3.39929870       2.48306901       0.00000000
H        0.93907960       0.34813986       1.45239941
H        0.70044974      -1.09782958       0.45624983
H        0.40944983       0.50566979      -0.22953991
H        3.12536889      -0.59250975       0.69692972
H        2.37216918       0.07511997      -2.08900922
H        2.98379894      -2.49129905      -0.71753970
H        2.57471901      -1.66551940      -3.47090854
H        3.75999840       3.48616852      -0.00119000
