19
Properties=species:S:1:pos:R:3 atomization_energy=-1918.71 smiles=C.C.C.C.C.C.C.H.H.H.H.H.H.H.H.H.H.H.H pbc="F F F"
C        1.46251941      -0.22498992      -0.44255982
C        2.82719888       0.06301997       0.10055996
C        3.63197865      -1.07103957       0.69277975
C        4.04933833      -0.45002983      -0.61204977
C        5.07172806       0.64914972      -0.65472971
C        4.25839831       1.92228929      -0.39946984
C        3.11841868       1.48408944       0.52855980
H        1.12975958       0.57624978      -1.10953952
H        0.74324973      -0.30836986       0.37759985
H        1.43921939      -1.16120952      -1.00974957
H        3.21529874      -2.07217923       0.66402976
H        4.22905824      -0.87878965       1.57727941
H        3.94155856      -1.00324959      -1.53360945
H        5.82464769       0.50501982       0.12808994
H        5.58302789       0.69445972      -1.62105939
H        4.86132820       2.73046896       0.02398999
H        3.83593850       2.27619902      -1.34846946
H        3.44029874       1.51026944       1.57567938
H        2.25343899       2.14632916       0.42345982
