22
Properties=species:S:1:pos:R:3 atomization_energy=-2062.03 smiles=C.C.C.N.C.C.C.H.H.H.H.H.H.H.H.H.H.H.H.H.H.H pbc="F F F"
C        3.28325861      -1.11726956      -0.68200975
C        2.66416892      -0.13395995       0.30307987
C        3.25205861       1.28878946       0.20920991
N        2.50735892       2.16551921       1.12139960
C        4.78248831       1.37445946       0.46344982
C        5.30656772       2.80105888       0.24620991
C        5.21593790       0.87531966       1.84617924
H        2.74887880      -2.07160921      -0.64213977
H        4.33146839      -1.31731942      -0.44662983
H        3.22071882      -0.73743974      -1.70610928
H        2.76371890      -0.53270976       1.31962952
H        1.58649934      -0.08934996       0.09681996
H        3.06654871       1.65727940      -0.80807968
H        2.58370906       1.81682933       2.07576915
H        1.51500936       2.13321904       0.89186962
H        5.28533808       0.74714969      -0.28320988
H        4.91543812       3.49756860       0.99469960
H        5.02719815       3.17091872      -0.74593971
H        6.39986757       2.82276896       0.31168988
H        4.77921810       1.47463938       2.65108908
H        6.30540737       0.93182962       1.94810921
H        4.93179827      -0.16894994       2.00168923
