19
Properties=species:S:1:pos:R:3 atomization_energy=-1928.18 smiles=C.C.C.C.C.C.C.H.H.H.H.H.H.H.H.H.H.H.H pbc="F F F"
C        0.96986963       0.00434000      -0.04655998
C        2.49349913      -0.00841999      -0.01754999
C        3.05986875      -1.26622954       0.65658971
C        3.38355878      -0.86887966       2.09797922
C        3.52388851       0.61824974       2.00509924
C        4.10795842       1.40712942       3.12077873
C        3.03822881       1.08752955       0.84807968
H        0.59115978      -0.81975966      -0.66027974
H        0.59572975       0.94133960      -0.47305982
H        0.54219982      -0.10156996       0.95694964
H        2.88200877       0.07691997      -1.03844961
H        3.98809854      -1.56247943       0.14888993
H        2.38302900      -2.12599909       0.61016978
H        4.30353835      -1.35354953       2.43807911
H        2.56679908      -1.13301958       2.77774902
H        4.13090845       2.47702896       2.88852876
H        5.13445811       1.08369954       3.31955874
H        3.51788858       1.27205952       4.03254846
H        3.00990892       2.13210904       0.56809979
