15
Properties=species:S:1:pos:R:3 atomization_energy=-1505.4 smiles=C.N.C.N.C.C.C.H.H.H.H.H.H.H.H pbc="F F F"
C        1.03367960      -0.08272997       0.56850976
N        2.30671899       0.16661993      -0.07082998
C        2.98710878       1.35959942       0.03832998
N        2.41039912       2.50477909       0.20294992
C        4.51259833       1.33688948      -0.07149997
C        5.11471774       0.48382982       0.96711960
C        5.60673795      -0.20998992       1.81635924
H        0.72196969      -1.11388959       0.37636986
H        0.25508990       0.57819979       0.17700993
H        1.11354957       0.05431998       1.65126937
H        2.91214898      -0.65144972      -0.05959998
H        1.39823941       2.37883904       0.21550991
H        4.89900782       2.35888898       0.00786999
H        4.77171831       0.95947964      -1.06705955
H        6.04466742      -0.81531970       2.57565894
