21
Properties=species:S:1:pos:R:3 atomization_energy=-1929.11 smiles=C.C.N.C.C.C.N.H.H.H.H.H.H.H.H.H.H.H.H.H.H pbc="F F F"
C        1.95820928       0.36411987      -1.77537926
C        3.29278866       0.20887993      -1.05844963
N        3.92910854       1.51785944      -0.91436962
C        5.16391779       1.47731940      -0.10304996
C        6.25962741       0.60713979      -0.72320971
C        5.70801766       2.91839897       0.09555996
N        4.67969814       3.85659838       0.56957978
H        1.48334935      -0.61373977      -1.90133924
H        2.09299921       0.80367966      -2.76900903
H        1.27318946       1.00146958      -1.20677953
H        3.92059842      -0.46530981      -1.64982931
H        3.12085872      -0.24979990      -0.07754997
H        3.28247866       2.13549911      -0.41839982
H        4.91783829       1.07748954       0.89038964
H        6.47345746       0.90899963      -1.75424929
H        5.98007769      -0.45133981      -0.72699972
H        7.18981732       0.69014971      -0.14969993
H        6.11619778       3.30280874      -0.84780968
H        6.52906723       2.90067876       0.82261971
H        4.03198854       4.01653829      -0.20229992
H        5.11992787       4.75983805       0.73922971
