17
Properties=species:S:1:pos:R:3 atomization_energy=-1785.88 smiles=C.C.C.C.C.C.C.H.H.H.H.H.H.H.H.H.H pbc="F F F"
C        0.99727962       0.02707999       0.10663996
C        2.47730905      -0.01851999      -0.01030000
C        3.25759880      -1.10968953      -0.05291998
C        4.70627822      -0.75159969      -0.18474993
C        4.69790839       0.75096968      -0.31607988
C        5.74647799       1.51124937      -0.65087977
C        3.28618868       1.24358949      -0.10248996
H        0.56372979      -0.97849961       0.13212995
H        0.56397979       0.55742978      -0.74789969
H        0.70182974       0.54643980       1.02375957
H        2.90494896      -2.13000914       0.00003000
H        5.25353778      -1.06483955       0.71035974
H        5.13936798      -1.22630947      -1.07069956
H        6.72535724       1.07457953      -0.82609967
H        5.64914777       2.58672896      -0.76383970
H        2.95393882       1.85942929      -0.94334961
H        3.21125866       1.81120929       0.83082968
