15
Properties=species:S:1:pos:R:3 atomization_energy=-1481.01 smiles=C.C.C.N.N.C.C.H.H.H.H.H.H.H.H pbc="F F F"
C        2.07454912      -0.49859981       1.31241953
C        2.33156908       0.01760999      -0.09262996
C        2.87475879       1.41874940      -0.05390998
N        2.23632916       2.54855907      -0.03569999
N        0.88409965       2.46486912      -0.06267997
C        4.30185833       1.62522942       0.01049999
C        5.48978796       1.79277926       0.06551998
H        1.68949932      -1.52224937       1.27699954
H        1.34230943       0.12405995       1.83643926
H        2.99441881      -0.49978981       1.90657927
H        1.40886949      -0.01227000      -0.68056976
H        3.05615872      -0.63302973      -0.59558977
H        0.50507981       3.37333861      -0.34581986
H        0.52266978       2.33534900       0.88652966
H        6.54189727       1.95336918       0.11344996
