22
Properties=species:S:1:pos:R:3 atomization_energy=-2057.81 smiles=C.C.N.C.C.C.C.H.H.H.H.H.H.H.H.H.H.H.H.H.H.H pbc="F F F"
C        2.78916878      -0.32570988      -1.80228925
C        3.97828841      -0.07034997      -0.88699963
N        4.43942832       1.30607945      -1.05632961
C        5.51056795       1.68893927      -0.12531995
C        6.78752711       0.86739967      -0.32927986
C        5.79414791       3.20012884      -0.26299990
C        6.26229758       3.64658863      -1.64365931
H        2.45470900      -1.36316940      -1.70541928
H        3.05340881      -0.15367994      -2.85204897
H        1.94564923       0.32576987      -1.54974944
H        4.76961790      -0.77960972      -1.14908955
H        3.67749845      -0.25466989       0.15001994
H        3.65003850       1.94148918      -0.93583960
H        5.16109774       1.52673935       0.90327966
H        7.09936716       0.85277966      -1.37849941
H        6.64723750      -0.16996994      -0.00709000
H        7.61205684       1.27810955       0.26316989
H        6.55490747       3.49028859       0.47400982
H        4.88920828       3.76355855      -0.00315000
H        7.20135694       3.16156884      -1.92657930
H        6.43434763       4.72760828      -1.64719940
H        5.51383766       3.42788858      -2.41201909
