18
Properties=species:S:1:pos:R:3 atomization_energy=-1760.89 smiles=C.C.C.C.N.C.C.H.H.H.H.H.H.H.H.H.H.H pbc="F F F"
C        1.16379957      -0.30750989      -0.02823999
C        2.66080888      -0.25524989      -0.29287988
C        3.27934874       1.03907961       0.24849991
C        4.78965805       1.13452953      -0.02472999
N        5.28155815       2.46060901       0.34808986
C        5.54451760       0.13053995       0.74109968
C        6.16226742      -0.68834970       1.36777949
H        0.73915969      -1.23045956      -0.43539982
H        0.65137977       0.53829978      -0.49749981
H        0.95551962      -0.28310990       1.04620961
H        2.83720886      -0.32595988      -1.37248951
H        3.13040871      -1.12931951       0.17144992
H        3.08114885       1.11276961       1.32654945
H        2.76988891       1.88863927      -0.22559991
H        4.97682829       0.99201958      -1.09497963
H        5.13470792       2.59841897       1.34698941
H        4.72687803       3.17186875      -0.12231995
H        6.71617742      -1.41016950       1.92319919
