17
Properties=species:S:1:pos:R:3 atomization_energy=-1626.8 smiles=C.N.C.C.C.C.N.H.H.H.H.H.H.H.H.H.H pbc="F F F"
C        1.15928953      -0.00196000      -0.04677998
N        2.61478896      -0.11256996      -0.04598998
C        3.14854880      -0.75720970      -1.23326952
C        3.25995860       0.74487973      -1.05001956
C        4.55513835       1.44558937      -0.66455972
C        5.91045747       1.04879960      -1.20079954
N        5.24641800       2.24748902      -1.68426938
H        0.85542964       0.84805968       0.57303980
H        0.72386974      -0.90517965       0.39315985
H        0.71507972       0.13205995      -1.04084959
H        2.46287898      -1.13217956      -1.98276918
H        4.03333851      -1.36246943      -1.08232963
H        2.59685905       1.34913953      -1.66756934
H        4.54549829       1.89385925       0.32784987
H        5.97137781       0.22551991      -1.90053922
H        6.77568723       1.18672955      -0.56535979
H        5.64573777       3.08631886      -1.25985956
