13
Properties=species:S:1:pos:R:3 atomization_energy=-1278.45 smiles=O.C.C.C.N.C.H.H.H.H.H.H.H pbc="F F F"
O        0.97811960      -0.05212998       0.59466977
C        2.04445925       0.03953998      -0.01403000
C        3.03757881       1.21336954       0.02763999
C        2.48562892       2.64279899      -0.12743995
N        3.48345874       3.09640883       0.87204963
C        3.51849872       1.71270938       1.40333940
H        2.35354915      -0.79001970      -0.67211976
H        3.88100840       1.02694961      -0.65455977
H        1.44856940       2.78102883       0.20075992
H        2.60040885       3.08909879      -1.11965952
H        4.36663833       3.39671861       0.45799981
H        4.51019816       1.36829942       1.71079936
H        2.81802892       1.54647935       2.23031914
