13
Properties=species:S:1:pos:R:3 atomization_energy=-1407.43 smiles=C.C.C.C.N.C.N.H.H.H.H.H.H pbc="F F F"
C        0.99181961      -0.00829000       0.08697997
C        2.51999896       0.00000000       0.00000000
C        2.97996881      -0.74067973      -1.26169956
C        4.41677806      -1.04485958      -1.21374956
N        5.54573788      -1.30298953      -1.16143952
C        3.00201878       1.36116943       0.00000000
N        3.38622869       2.44615901       0.00000000
H        0.64681976       0.51277979       0.98751963
H        0.60914973      -1.03378961       0.12791995
H        0.53716978       0.48893981      -0.77789967
H        2.90532897      -0.51937980       0.88728962
H        2.75458880      -0.15695995      -2.16331913
H        2.43411902      -1.68813939      -1.35408951
