16
Properties=species:S:1:pos:R:3 atomization_energy=-1660.91 smiles=C.C.C.C.C.C.N.H.H.H.H.H.H.H.H.H pbc="F F F"
C        1.01145963      -0.23603990       0.15196994
C        2.52489898      -0.08762996       0.13173995
C        2.94045878       1.35870945      -0.13820995
C        4.43567818       1.50391940      -0.15110994
C        5.13586814       1.92236928      -1.21683948
C        6.55212728       2.05484925      -1.19107948
N        7.70525690       2.16462924      -1.17481951
H        0.73519973      -1.27720948       0.34570988
H        0.57559977       0.05792998      -0.80821966
H        0.56691976       0.38506986       0.93615962
H        2.93966873      -0.74814969      -0.63942974
H        2.93005895      -0.42288984       1.09431953
H        2.53541892       2.01351915       0.64259977
H        2.51025897       1.69452929      -1.08971953
H        4.95443793       1.25788949       0.77528968
H        4.63935795       2.17733916      -2.14654920
