17
Properties=species:S:1:pos:R:3 atomization_energy=-1661.41 smiles=C.C.C.C.N.C.N.H.H.H.H.H.H.H.H.H.H pbc="F F F"
C        0.62459973       0.64880977       1.09585951
C        2.10777913       0.80236968       1.21034952
C        2.89050880       1.24659955       0.21435991
C        4.37697835       1.40109946       0.30320988
N        4.67503809       2.79801879       0.09948996
C        5.91235753       3.24203879      -0.22554991
N        6.29256775       4.46702831      -0.18767992
H        0.34434987      -0.39751985       1.25331951
H        0.25009991       0.95887959       0.11471995
H        0.12738995       1.25719948       1.85791921
H        2.54489900       0.52784980       2.16718914
H        2.44555896       1.50911944      -0.74372972
H        4.84735813       0.78455970      -0.47020980
H        4.76092812       1.07720958       1.27666949
H        4.05803846       3.44526866       0.57356976
H        6.61231737       2.45339915      -0.54979978
H        5.51431759       5.05871786       0.11011996
