20
Properties=species:S:1:pos:R:3 atomization_energy=-1906.02 smiles=C.C.N.C.C.C.C.H.H.H.H.H.H.H.H.H.H.H.H.H pbc="F F F"
C        2.79271883      -1.46760943       0.77915969
C        2.24725915      -0.12078996       1.24418954
N        2.98984884       1.03677961       0.71021969
C        2.24506916       2.26483906       1.02311960
C        4.35590819       1.10152952       1.25415952
C        5.18285777       2.17421909       0.60089976
C        5.83262792       3.14158874       1.26226945
H        2.10021916      -2.26583905       1.06509957
H        3.75878848      -1.69764937       1.23614951
H        2.90422880      -1.49498939      -0.30915988
H        2.21302915      -0.09587996       2.34130906
H        1.20816950      -0.06765998       0.89287964
H        1.22660949       2.20996913       0.62200973
H        2.70232898       3.14145879       0.55302981
H        2.17903912       2.44249894       2.10243917
H        4.88488787       0.16362993       1.05054958
H        4.33767827       1.22662955       2.34480915
H        5.24601780       2.13703909      -0.48475982
H        5.79797779       3.21518872       2.34396914
H        6.41302766       3.88610852       0.72467972
