11
Properties=species:S:1:pos:R:3 atomization_energy=-1152.85 smiles=C.C.C.S.C.N.H.H.H.H.H pbc="F F F"
C        0.97280960      -0.01751999      -0.00718000
C        2.45400903       0.08120997       0.00010000
C        3.20669879       1.24100953       0.00073000
S        4.87889803       0.86127963       0.00998999
C        4.47645844      -0.80469971       0.01225999
N        3.19343878      -1.09071952       0.00663000
H        0.50523982       0.97237963       0.00227000
H        0.62567977      -0.56744978       0.87316967
H        0.63336975      -0.54720979      -0.90279966
H        2.86467891       2.26587918      -0.00368000
H        5.23936786      -1.57186943       0.01796999
