11
Properties=species:S:1:pos:R:3 atomization_energy=-1293.74 smiles=N.C.C.C.N.C.C.H.H.H.H pbc="F F F"
N        0.90629962       0.08072997      -0.00928000
C        2.06737913       0.04342999      -0.00484000
C        3.49625874      -0.00255000       0.00063000
C        4.33325843       1.09427954       0.00409000
N        5.62779802       0.63940974       0.00894000
C        5.62722775      -0.73209972       0.00862000
C        4.31645822      -1.15862956       0.00350000
H        4.12156840       2.15587915       0.00352000
H        6.45489749       1.22422950       0.01225000
H        6.55742725      -1.28547951       0.01206000
H        3.98882854      -2.19098903       0.00201000
