17
Properties=species:S:1:pos:R:3 atomization_energy=-1660.25 smiles=N.C.C.N.C.C.C.H.H.H.H.H.H.H.H.H.H pbc="F F F"
N        0.98137959       0.01818999      -0.01583999
C        2.43482908      -0.00045000       0.01944999
C        3.04820877       1.09576956       0.90304966
N        4.42143811       0.63351976       1.18513948
C        4.26689834      -0.81837965       1.39983944
C        3.03663887      -1.22808954       0.63911974
C        2.55529909      -2.48027899       0.60737976
H        0.65831976      -0.67278976      -0.69037971
H        0.66253975       0.92219965      -0.35784985
H        2.82507880       0.10446996      -1.00162962
H        2.50318890       1.21262959       1.84862925
H        3.05687887       2.06793918       0.39983985
H        4.98398794       0.76088970       0.34407988
H        5.15837811      -1.34582945       1.04778958
H        4.13709838      -1.01081959       2.46997908
H        1.64136940      -2.72495880       0.07774997
H        3.06062876      -3.28893859       1.12622959
