17
Properties=species:S:1:pos:R:3 atomization_energy=-1557.42 smiles=C.N.C.C.C.O.H.H.H.H.H.H.H.H.H.H.H pbc="F F F"
C        1.01607962      -0.67312971       0.53434979
N        2.22426925      -0.10796996      -0.07306998
C        2.89741889      -1.13922958      -0.87036968
C        1.91153922       1.05696958      -0.93471963
C        1.41590941       2.26840905      -0.13069995
O        2.31370907       2.54042896       0.94453961
H        0.55726980       0.03356998       1.23309958
H        1.26318945      -1.56329938       1.12567951
H        0.26904991      -0.95741960      -0.21591992
H        3.16824880      -1.99681924      -0.24293990
H        3.83397839      -0.75358969      -1.29008948
H        2.27102900      -1.49882937      -1.69477936
H        1.18597949       0.80048969      -1.71618928
H        2.83870898       1.36701947      -1.43306945
H        0.41843985       2.09826914       0.28611990
H        1.36712949       3.15661886      -0.76892967
H        2.64863894       1.66087941       1.21633948
