17
Properties=species:S:1:pos:R:3 atomization_energy=-1645.53 smiles=C.C.C.C.C.N.N.H.H.H.H.H.H.H.H.H.H pbc="F F F"
C        0.96232959      -0.14429995      -0.13236995
C        2.44292891       0.04034998      -0.03570999
C        3.07669873       1.21895956       0.10704996
C        2.43871902       2.57299886       0.15593994
C        4.56356823       1.17793959       0.21038992
N        5.29185781       2.24304900       0.33635987
N        6.61702738       1.98011920       0.40837985
H        0.70115974      -1.16920955       0.14549994
H        0.62186975       0.02521999      -1.15653950
H        0.42141982       0.51838981       0.54705978
H        3.01897871      -0.88329963      -0.08036996
H        1.35520949       2.53369903       0.02003999
H        2.83808900       3.21186881      -0.64024975
H        2.63518893       3.05424882       1.11960956
H        5.02270817       0.16940994       0.17667993
H        7.11244701       2.83749880       0.66628977
H        6.98615723       1.73419930      -0.51380981
