16
Properties=species:S:1:pos:R:3 atomization_energy=-1658.13 smiles=N.C.C.C.C.C.C.H.H.H.H.H.H.H.H.H pbc="F F F"
N        1.92272923      -0.34076986       1.39372949
C        2.43100904       0.02217999       0.07600997
C        3.00342880       1.39952945       0.06523997
C        4.29213853       1.76058936      -0.08139996
C        4.41243847       3.25483880      -0.06425997
C        2.98308888       3.67911867       0.09409996
C        2.19318910       2.59765895       0.16441993
H        1.46757941      -1.24889955       1.33490944
H        1.20254958       0.32479988       1.66685941
H        1.62412938      -0.04932998      -0.66226975
H        3.19471886      -0.70712971      -0.21572992
H        5.12591822       1.08306959      -0.18829993
H        4.83363788       3.62819847      -1.00203959
H        5.02249823       3.59399850       0.77774972
H        2.65100884       4.70487828       0.14443995
H        1.12057952       2.60082898       0.27920990
