14
Properties=species:S:1:pos:R:3 atomization_energy=-1410.34 smiles=C.C.N.C.N.C.N.H.H.H.H.H.H.H pbc="F F F"
C        1.07405960      -0.84186968      -0.12694995
C        2.23904904       0.05473998       0.25656990
N        1.82745929       1.44402946       0.22478991
C        2.67982885       2.49011890       0.45642984
N        3.96141855       2.51678905       0.35621985
C        2.11946926       3.77193847       0.87526963
N        1.60263933       4.75605812       1.21701952
H        1.37798944      -1.89324924      -0.10294996
H        0.71714972      -0.61075973      -1.13640952
H        0.23346991      -0.71340973       0.56295980
H        3.06334890      -0.11458996      -0.44380983
H        2.58658892      -0.20449993       1.26232950
H        0.86716967       1.60432932       0.52171979
H        4.30109831       1.60920941       0.03702999
