15
Properties=species:S:1:pos:R:3 atomization_energy=-1517.35 smiles=C.N.C.C.C.C.N.H.H.H.H.H.H.H.H pbc="F F F"
C        2.61536907      -0.72967973      -1.16468955
N        2.36267899       0.03338998       0.05224998
C        2.96069877       1.38567949       0.00000000
C        2.45206911       2.14502916       1.20411958
C        1.70596936       3.25941861       1.15449953
C        4.40469846       1.38567949       0.00000000
N        5.55570799       1.38567949       0.00000000
H        2.09443914      -1.69037933      -1.10199961
H        3.68054863      -0.94165962      -1.30250947
H        2.23585907      -0.20827991      -2.04924913
H        2.75471900      -0.47115980       0.84706966
H        2.59753909       1.88711924      -0.90661964
H        2.71612898       1.74761929       2.18249908
H        1.39945943       3.70597857       0.21372992
H        1.37587945       3.74503844       2.06848914
