16
Properties=species:S:1:pos:R:3 atomization_energy=-1611.47 smiles=N.C.C.C.C.C.C.H.H.H.H.H.H.H.H.H pbc="F F F"
N        0.98156960      -0.03020998       0.20515992
C        2.41760899      -0.00848000      -0.04368998
C        3.07748878       1.05965956       0.85612968
C        4.13928837      -0.00057000       1.22615946
C        3.11314874      -1.08329959       0.82207966
C        2.70877882       0.01697999      -1.45412939
C        2.95088889       0.03733998      -2.63025888
H        0.71917972      -0.12986995       1.18318959
H        0.50080979      -0.77454972      -0.29730987
H        2.48679897       1.38929944       1.72060937
H        3.47153861       1.94911930       0.35419985
H        5.02929805       0.02439999       0.58680977
H        4.45391819      -0.01194000       2.27272921
H        3.53647858      -1.94221930       0.29156987
H        2.53541892      -1.46092947       1.67547929
H        3.16144873       0.06052997      -3.67403848
