20
Properties=species:S:1:pos:R:3 atomization_energy=-1917.09 smiles=C.C.C.N.C.C.C.H.H.H.H.H.H.H.H.H.H.H.H.H pbc="F F F"
C        1.42098947      -0.45594980       0.98456963
C        2.26340910      -0.32811987      -0.29201987
C        2.03719918      -1.52438939      -1.23789955
N        2.40253901      -2.79421894      -0.61315978
C        1.92483923       1.00863963      -0.98621962
C        2.82602883       1.32249953      -2.14833924
C        2.39551915       1.50683938      -3.40274857
H        1.58504932       0.40290984       1.64410935
H        1.68454934      -1.35469952       1.55065935
H        0.35218987      -0.50216980       0.74982971
H        3.32129882      -0.30823988       0.00499000
H        2.63480892      -1.41138940      -2.14849921
H        0.98509959      -1.57029943      -1.54108943
H        3.39077873      -2.77748887      -0.36415986
H        2.29337899      -3.54556856      -1.29308944
H        2.02681915       1.82804924      -0.26329989
H        0.87395965       1.00386962      -1.30309955
H        3.88919857       1.41661947      -1.93553921
H        1.34397948       1.43391943      -3.66314862
H        3.09368870       1.74073935      -4.20082843
