19
Properties=species:S:1:pos:R:3 atomization_energy=-1782.84 smiles=C.C.C.C.C.N.N.H.H.H.H.H.H.H.H.H.H.H.H pbc="F F F"
C        1.47816937      -0.04422998      -1.21972955
C        2.00826914       0.37490984       0.13898994
C        2.93591884       1.56991941       0.00006000
C        2.30375914       2.95204886       0.06640998
C        2.28839898       3.46650864       1.49457936
N        4.20406836       1.32399952      -0.17066994
N        5.01496816       2.39633898      -0.28365989
H        0.81486967      -0.90844961      -1.12022953
H        2.29739913      -0.31648988      -1.89324924
H        0.91608964       0.76709970      -1.69269939
H        2.55849890      -0.45412984       0.59792976
H        1.18075951       0.63485976       0.80727967
H        1.27713946       2.88616895      -0.30972987
H        2.83431892       3.65074856      -0.58737979
H        1.75110928       2.77948885       2.15688923
H        1.79577935       4.44278837       1.54237935
H        3.30397879       3.57808851       1.88809929
H        5.92143742       2.09148913      -0.64787974
H        5.23096775       2.77762892       0.64052977
