13
Properties=species:S:1:pos:R:3 atomization_energy=-1285.83 smiles=O.C.C.C.C.N.H.H.H.H.H.H.H pbc="F F F"
O        2.29609912       0.49979981       1.52746935
C        2.04169926       0.91289966       0.40019983
C        3.07446888       1.32463943      -0.61824974
C        4.48319821       1.14294957      -0.14465995
C        5.29135769      -0.05756998      -0.56431980
N        5.56848756       1.26543949      -1.11857954
H        0.99450959       1.02036963       0.06918997
H        2.89950895       2.38074894      -0.84813967
H        2.88174887       0.74609969      -1.52974941
H        4.66460823       1.58112936       0.83045970
H        4.85748823      -0.77457968      -1.25055951
H        6.01945751      -0.45929982       0.12961995
H        6.40088750       1.67099941      -0.68334976
