15
Properties=species:S:1:pos:R:3 atomization_energy=-1602.64 smiles=C.C.C.C.C.C.C.H.H.H.H.H.H.H.H pbc="F F F"
C        2.04068917      -0.75309973      -1.21724952
C        2.27144913       0.02338999      -0.14791994
C        1.53928943      -0.22320991       1.05340957
C        0.92625966      -0.42912983       2.06426915
C        3.27478861       1.09750963      -0.08316997
C        3.33615860       2.14024924      -1.17363949
C        2.83259878       2.51556903       0.18751992
H        2.59498903      -0.61208977      -2.13871911
H        1.29812951      -1.54453943      -1.19804950
H        0.38266984      -0.61140974       2.96212874
H        4.22132832       0.78760969       0.35156986
H        2.61465901       2.10793911      -1.98219917
H        4.31413828       2.50115890      -1.47109943
H        3.46771857       3.12926867       0.81594971
H        1.77405931       2.72598882       0.29364987
