14
Properties=species:S:1:pos:R:3 atomization_energy=-1399.98 smiles=C.N.C.C.N.C.N.H.H.H.H.H.H.H pbc="F F F"
C        0.97942964      -0.06668998       0.14244993
N        2.43215916       0.04284999       0.17061993
C        3.15324872      -1.21274957      -0.03831999
C        3.05599874       1.25893956      -0.05498998
N        2.52781895       2.43415914      -0.04882998
C        4.49051834       1.32676948      -0.34457987
N        5.62966780       1.31195953      -0.57745977
H        0.52266978       0.63793972       0.84495967
H        0.63930975      -1.06585959       0.43493982
H        0.60186979       0.14037994      -0.86417967
H        2.59635893      -2.06656915       0.36254986
H        4.11953840      -1.20326948       0.47669982
H        3.31839877      -1.38363940      -1.10714956
H        1.53499942       2.37326909       0.17116993
