15
Properties=species:S:1:pos:R:3 atomization_energy=-1520.29 smiles=C.C.C.N.C.C.N.H.H.H.H.H.H.H.H pbc="F F F"
C        0.44102984      -0.24371990      -1.59303939
C        1.14754957      -0.32441987      -0.45758983
C        2.36019909       0.49779980      -0.15150994
N        3.48813873      -0.40132984       0.07743997
C        4.70129821       0.32677986       0.48540980
C        5.29607780       1.17328950      -0.57032977
N        5.75059755       1.83681927      -1.40802948
H       -0.43335982      -0.86891965      -1.74676931
H        0.71527969       0.43898983      -2.39145914
H        0.82722967      -1.02317959       0.31288988
H        2.15400912       1.08819961       0.74871970
H        2.56964891       1.19493952      -0.97114964
H        3.67871847      -0.90902966      -0.78762969
H        5.44466811      -0.41940984       0.78917969
H        4.49351805       0.92739963       1.37860942
