17
Properties=species:S:1:pos:R:3 atomization_energy=-1637.29 smiles=N.C.C.C.C.C.N.H.H.H.H.H.H.H.H.H.H pbc="F F F"
N        1.01718962      -0.02901999      -0.06134998
C        2.47650890      -0.08944996      -0.05429998
C        3.17595879      -0.76078971      -1.19276947
C        3.25780874       0.74135970      -1.04988961
C        4.53118808       1.47795943      -0.65208976
C        5.91945763       1.01828960      -1.03360958
N        5.30113805       2.14624918      -1.70734936
H        0.68243972       0.75156972       0.50240979
H        0.61676976      -0.87173964       0.34940987
H        2.92107873      -0.22014990       0.93001964
H        2.58311886      -1.14922959      -2.01309914
H        4.05357850      -1.35302947      -0.96646959
H        2.64868890       1.30091953      -1.76243933
H        4.44957809       2.05158925       0.26930990
H        6.02703754       0.11884995      -1.62604937
H        6.74019734       1.23700945      -0.36320987
H        5.67503796       3.03350871      -1.36848943
