20
Properties=species:S:1:pos:R:3 atomization_energy=-1919.22 smiles=C.C.C.C.N.C.C.H.H.H.H.H.H.H.H.H.H.H.H.H pbc="F F F"
C        3.02325876      -0.80911967       1.19688954
C        2.58519908       0.01147000      -0.01350999
C        3.07613881       1.48387938      -0.03718998
C        2.55514895       2.15965907      -1.31889952
N        2.51241892       2.22458920       1.09574962
C        4.59212810       1.54258942      -0.05496998
C        5.39902794       2.20187913       0.79038968
H        2.64542904      -1.83289930       1.10531953
H        2.62911885      -0.39684985       2.13021908
H        4.11314836      -0.86568969       1.27351951
H        1.48808940      -0.01137999      -0.06205997
H        2.93687896      -0.50456981      -0.91719964
H        2.92803878       1.65220930      -2.21713912
H        2.87143886       3.20845880      -1.37984951
H        1.45931947       2.14104914      -1.36584941
H        2.81799889       1.79112927       1.96415925
H        1.49748937       2.14642909       1.08348960
H        5.06795823       0.98302959      -0.86028967
H        5.00990791       2.80083885       1.60727932
H        6.47674736       2.16959916       0.66720977
