22
Properties=species:S:1:pos:R:3 atomization_energy=-2063.64 smiles=C.C.C.C.N.C.C.H.H.H.H.H.H.H.H.H.H.H.H.H.H.H pbc="F F F"
C        1.25200954      -0.14393994      -0.55042979
C        2.75797887      -0.04581998      -0.35238988
C        3.24308874       1.40136945      -0.48460981
C        4.75161810       1.57980941      -0.21947992
N        5.55910790       0.83086968      -1.18426957
C        5.11857790       3.07419889      -0.27911988
C        6.58199725       3.35472867       0.04451998
H        0.92640960      -1.18542953      -0.46749983
H        0.96237962       0.22442992      -1.53967940
H        0.71767974       0.44074981       0.20468992
H        3.24604884      -0.68401976      -1.09705960
H        3.01796889      -0.43742983       0.63703978
H        2.68564887       2.02284922       0.22837991
H        2.99388891       1.77706925      -1.48516942
H        4.98280804       1.20378954       0.78481966
H        5.28827773       1.08629956      -2.13316908
H        5.37621770      -0.16717993      -1.09313963
H        4.49936810       3.62432847       0.44052981
H        4.88808793       3.48399873      -1.27000946
H        6.85293743       2.94980891       1.02364962
H        6.76119736       4.43472840       0.06202997
H        7.24966727       2.92117890      -0.70713974
