19
Properties=species:S:1:pos:R:3 atomization_energy=-1923.88 smiles=C.C.C.C.C.C.C.H.H.H.H.H.H.H.H.H.H.H.H pbc="F F F"
C        2.45614905      -0.45872984      -1.63703940
C        2.46063903       0.03893998      -0.19779992
C        3.32127863       1.29113955      -0.00171000
C        3.39650867       1.69943928       1.47952944
C        3.44840867       3.22686863       1.49768947
C        2.84854888       3.58921859       0.18130993
C        2.77328882       2.53633892      -0.63789973
H        1.88031928      -1.38685939      -1.71144937
H        3.47380858      -0.66373971      -1.98411928
H        2.00079926       0.27073990      -2.31325916
H        2.84328879      -0.76349969       0.44497983
H        1.42636942       0.23041992       0.11477995
H        4.33172830       1.11079954      -0.39000985
H        4.26690843       1.25943956       1.97839918
H        2.50737911       1.35948940       2.02753918
H        4.47703830       3.59620867       1.56270943
H        2.87130891       3.63092870       2.33451908
H        2.54998903       4.59486841      -0.08186996
H        2.41236907       2.58578903      -1.65679934
