20
Properties=species:S:1:pos:R:3 atomization_energy=-1919.56 smiles=C.C.C.N.C.C.C.H.H.H.H.H.H.H.H.H.H.H.H.H pbc="F F F"
C        3.16234879      -1.70825927      -0.07500997
C        2.69083882      -0.37175986       0.48726980
C        3.67493855       0.78237969       0.20281992
N        3.07004880       2.05311913       0.61405978
C        5.05100813       0.70025974       0.83998968
C        6.12672757       1.48858939       0.13458994
C        5.34727783      -0.00125000       1.94922918
H        2.39129916      -2.47081909       0.07546997
H        4.07509832      -2.05900918       0.41418983
H        3.35622878      -1.63345932      -1.14996955
H        2.49513903      -0.47295980       1.56157936
H        1.72338930      -0.14119995       0.02128999
H        3.81006849       0.82155966      -0.88608966
H        2.92824872       2.03207925       1.62310933
H        2.14296912       2.13602926       0.20224992
H        5.86292785       2.54999912       0.08995996
H        6.25662770       1.11800953      -0.88755968
H        7.09524710       1.41012939       0.63979972
H        4.60176816      -0.56749974       2.49582890
H        6.35425769      -0.01503999       2.35586908
