14
Properties=species:S:1:pos:R:3 atomization_energy=-1403.06 smiles=C.N.C.C.N.C.N.H.H.H.H.H.H.H pbc="F F F"
C        1.00677957       0.13526994      -0.33445988
N        2.39149901       0.02769999       0.10526996
C        2.92008884      -1.33998949       0.22993992
C        3.17509884      -1.98440921      -1.07424961
N        3.35935870      -2.50909900      -2.09490923
C        3.26137872       1.08257957       0.01162999
N        3.00418883       2.31765906      -0.22354991
H        0.50907979       0.97875964       0.15481994
H        0.43255984      -0.76304972      -0.08308997
H        0.96043963       0.27900990      -1.41895947
H        2.21160903      -1.94937920       0.80414969
H        3.84508854      -1.33051950       0.81950966
H        4.31561846       0.79705969       0.17571992
H        2.00178916       2.46181894      -0.34323987
