18
Properties=species:S:1:pos:R:3 atomization_energy=-1770.09 smiles=N.C.C.C.C.C.C.H.H.H.H.H.H.H.H.H.H.H pbc="F F F"
N        1.01926959      -0.00710000      -0.07037997
C        2.47852907      -0.07938996      -0.06582997
C        3.17417884      -0.72858972      -1.21865954
C        3.26114859       0.76948972      -1.04438961
C        4.54154830       1.49298942      -0.63079975
C        5.92366752       0.99961961      -0.98602962
C        5.38736771       2.23680910      -1.63772940
H        0.69648972       0.76555972       0.51134979
H        0.61614978      -0.85290968       0.33168988
H        2.92410872      -0.23030991       0.91526962
H        2.57702910      -1.10185957      -2.04292924
H        4.04867848      -1.32957944      -1.00168961
H        2.64978907       1.34795950      -1.73971930
H        4.45774807       1.98673923       0.33883988
H        6.01993745       0.11226996      -1.60055937
H        6.70628755       1.11164952      -0.24489990
H        5.80402768       3.19212868      -1.34119942
H        5.10916796       2.17847920      -2.68373898
