19
Properties=species:S:1:pos:R:3 atomization_energy=-1777.47 smiles=C.C.C.C.N.N.C.H.H.H.H.H.H.H.H.H.H.H.H pbc="F F F"
C        0.87599963      -0.58631975      -0.16315993
C        2.40041917      -0.39299984      -0.18059993
C        3.01297878      -1.09755959       1.03869960
C        2.96538885      -0.98566960      -1.47943935
N        2.66322899       1.05937960      -0.12004996
N        3.95939839       1.45900948      -0.16646993
C        4.10348837       2.74216880      -0.14493994
H        0.39932986      -0.09002996      -1.01725959
H        0.42851982      -0.17824992       0.75150973
H        0.61295975      -1.64984938      -0.21078992
H        2.62954907      -0.67884975       1.97680924
H        4.10515829      -1.00475960       1.05330958
H        2.77550883      -2.16789920       1.03361961
H        2.54949900      -0.48399980      -2.36143904
H        2.72241884      -2.05187918      -1.56166944
H        4.05679850      -0.89582965      -1.52689946
H        2.17921903       1.45047942       0.69237975
H        5.11589814       3.17391869      -0.17615993
H        3.26054880       3.45347876      -0.10170996
