18
Properties=species:S:1:pos:R:3 atomization_energy=-1788.59 smiles=N.C.C.C.C.C.C.H.H.H.H.H.H.H.H.H.H.H pbc="F F F"
N        0.74342970       0.00964000      -0.01444999
C        2.18782908       0.02491999       0.18829993
C        3.08577888      -0.84694967      -0.64468977
C        2.66365896      -1.47679946      -1.94269923
C        2.92797873      -0.38912984      -2.98811886
C        2.68178896       0.93136962      -2.25256920
C        3.09698869       0.64449977      -0.83664970
H        0.32347987       0.87558965       0.32110988
H        0.31274986      -0.74347973       0.52035979
H        2.48595896       0.15618994       1.22792956
H        3.94869853      -1.31312946      -0.18927992
H        3.24408873      -2.37820897      -2.16148923
H        1.60448942      -1.75248928      -1.92495921
H        3.97875850      -0.43750982      -3.30202878
H        2.30500919      -0.49933980      -3.88045857
H        3.27515878       1.73924933      -2.69118906
H        1.62688938       1.21829947      -2.30721911
H        3.96738846       1.19800951      -0.51218981
