17
Properties=species:S:1:pos:R:3 atomization_energy=-1630.09 smiles=C.C.N.N.C.C.C.H.H.H.H.H.H.H.H.H.H pbc="F F F"
C        0.93207961       0.15520993       0.45080982
C        2.37680904       0.09530996      -0.04923998
N        2.44614891      -0.49923979      -1.39489943
N        2.03346922      -1.78836927      -1.50987946
C        2.05697917      -2.22188900      -2.72616898
C        2.95143872       1.48859936      -0.11323995
C        4.01898843       1.90450927       0.58197977
H        0.88029967       0.63676972       1.43402944
H        0.50695980      -0.84892966       0.55626981
H        0.28908990       0.72246975      -0.23242991
H        2.96595887      -0.52073980       0.64214974
H        3.41083856      -0.39698983      -1.72192932
H        1.74194928      -3.25511863      -2.94024884
H        2.37391909      -1.60997940      -3.58909848
H        2.44614891       2.19257921      -0.77226972
H        4.55550827       1.24232948       1.25462949
H        4.37712824       2.92533884       0.49012981
