16
Properties=species:S:1:pos:R:3 atomization_energy=-1622.65 smiles=N.C.C.C.C.C.C.H.H.H.H.H.H.H.H.H pbc="F F F"
N        0.90208967      -0.29223987      -0.59600977
C        2.07555921      -0.17387994       0.21206991
C        2.55826903      -1.51577935       0.85871966
C        3.86651853      -0.59929979       0.92115967
C        3.42340869      -0.26991988      -0.57902977
C        3.44715862       0.60811978       1.71523938
C        2.22864921       0.88394964       1.22100951
H        0.05464998      -0.44861983      -0.05337998
H        0.72146969       0.53251982      -1.16539948
H        2.61410893      -2.40688894       0.22246992
H        2.11211923      -1.79421932       1.81928931
H        4.83852805      -1.04560957       1.11945954
H        3.81488853       0.65767972      -1.01019961
H        3.53756866      -1.07711962      -1.31211951
H        4.00077844       1.11582951       2.48826905
H        1.55210937       1.67494940       1.49914946
