17
Properties=species:S:1:pos:R:3 atomization_energy=-1667.33 smiles=N.C.C.C.C.C.N.H.H.H.H.H.H.H.H.H.H pbc="F F F"
N        0.99373960      -0.01266999       0.04758998
C        2.46606895      -0.01841999      -0.02794999
C        2.97173877      -1.23999945      -0.82469967
C        3.31743865      -0.67245971      -2.16371908
C        3.35056873       0.66479975      -2.14309907
C        3.02888878       1.22335946      -0.79351967
N        4.25285812       1.77169926      -0.21077991
H        0.68143974       0.80632970       0.56662977
H        0.67345976      -0.83020970       0.56338977
H        2.83914879      -0.05497998       1.00257958
H        2.21870913      -2.03038926      -0.90710967
H        3.86651853      -1.66795932      -0.35907987
H        3.53540870      -1.27814954      -3.03264876
H        3.59638858       1.28778947      -2.99184882
H        2.28071903       2.01985923      -0.86943964
H        4.95753807       1.03650962      -0.16877993
H        4.06919831       2.04327922       0.75270969
