13
Properties=species:S:1:pos:R:3 atomization_energy=-1376.99 smiles=C.C.C.N.C.C.N.H.H.H.H.H.H pbc="F F F"
C        1.94476923      -0.67220971      -1.21129955
C        2.19580906       0.08847996      -0.13077995
C        1.45246943      -0.14072995       1.07147964
N        0.86247965      -0.36209987       2.04739916
C        3.23707871       1.12317954      -0.03933999
C        3.47391860       2.08278913      -1.18406960
N        2.80508886       2.52065905       0.02936999
H        2.50505892      -0.54717976      -2.13168916
H        1.17052950      -1.43488939      -1.20387949
H        4.09353844       0.85799964       0.57440977
H        2.84986883       2.03519920      -2.06794915
H        4.47793811       2.45415892      -1.34876949
H        3.43188854       3.06391891       0.62615976
