17
Properties=species:S:1:pos:R:3 atomization_energy=-1625.29 smiles=C.C.C.N.N.C.C.H.H.H.H.H.H.H.H.H.H pbc="F F F"
C        1.23415950      -0.13161995       0.89140962
C        2.72182888      -0.06500998       0.60588974
C        3.05327886       1.22636952      -0.08891997
N        3.50445851       1.22266946      -1.30129954
N        3.73603854       2.47306913      -1.74733933
C        3.48409865       2.45971903      -3.18949863
C        4.88048822       2.39281895      -2.65710894
H        0.98443961      -1.06539959       1.40430949
H        0.65393973      -0.08215996      -0.03622999
H        0.91720961       0.70340971       1.52557939
H        3.02806870      -0.91217964      -0.01590999
H        3.28555861      -0.09925996       1.54325935
H        2.88734886       2.15828916       0.48429982
H        3.14037882       3.39580870      -3.60910860
H        3.04935889       1.56907940      -3.62696861
H        5.41996791       1.45581938      -2.72229898
H        5.49240767       3.28333860      -2.71218882
