17
Properties=species:S:1:pos:R:3 atomization_energy=-1672.03 smiles=C.C.N.C.C.N.C.H.H.H.H.H.H.H.H.H.H pbc="F F F"
C        2.11529911      -0.64590973       1.00063960
C        2.44031905       0.23049990      -0.19819993
N        2.77726884       1.57933932       0.21751992
C        3.98052835       1.81797933       0.99425959
C        4.17771842       3.32794875       0.78648972
N        3.36716860       3.70468865      -0.40868983
C        2.62513908       2.65701886      -0.60442975
H        1.80447923      -1.64142933       0.66889976
H        1.30336954      -0.21313992       1.59420932
H        2.98413883      -0.76581969       1.65550929
H        1.56379937       0.25262990      -0.85670966
H        3.26595879      -0.20595992      -0.77211971
H        4.83065835       1.26207945       0.58311975
H        3.85701851       1.56679934       2.05171920
H        5.23266796       3.57130862       0.62575976
H        3.81685848       3.89512835       1.65235932
H        1.88885931       2.56551901      -1.41898949
