17
Properties=species:S:1:pos:R:3 atomization_energy=-1652.58 smiles=N.C.C.C.N.C.C.H.H.H.H.H.H.H.H.H.H pbc="F F F"
N        1.00419961       0.11632995       0.17280993
C        2.44781909      -0.04824998       0.02889999
C        2.81676877      -1.44668941      -0.45773981
C        2.82983877      -1.33010947      -1.97951928
N        3.32193873       0.03091999      -2.27600901
C        2.26553903       1.03086957      -2.37748907
C        2.98077879       0.83137970      -1.06755955
H        0.80714966       1.06011956       0.50335979
H        0.66223973      -0.51709979       0.89378967
H        2.93541897       0.16750993       0.98551959
H        2.14468927      -2.23170923      -0.09845996
H        3.82842837      -1.69303928      -0.10616996
H        3.50356853      -2.07566922      -2.41431909
H        1.83240928      -1.50669946      -2.39960893
H        2.50898898       1.91428925      -2.95555879
H        1.24096954       0.69589971      -2.48635891
H        3.73650864       1.53807937      -0.75251968
