18
Properties=species:S:1:pos:R:3 atomization_energy=-1755.73 smiles=C.C.C.C.C.C.H.H.H.H.H.H.H.H.H.H.H.H pbc="F F F"
C        2.25105900      -0.66223973       1.43172944
C        2.67488896      -0.19168992       0.04971998
C        3.18405887       1.22173950       0.08436997
C        4.46203821       1.64055930       0.00202000
C        5.66300782       0.74118970      -0.09778996
C        4.79013799       3.11111874       0.01921999
H        1.85318926      -1.68055935       1.37845941
H        1.47150947      -0.01665999       1.84966924
H        3.09914890      -0.66616972       2.12438922
H        1.81218934      -0.22995991      -0.62654974
H        3.41173863      -0.88509964      -0.36595987
H        2.39803893       1.97245918       0.17120993
H        5.42382807      -0.31786989       0.02052999
H        6.38612763       0.99196962       0.68580974
H        6.15010757       0.87052965      -1.06972960
H        3.89386846       3.73684853       0.08421996
H        5.32399775       3.39002855      -0.89513965
H        5.42439783       3.34838859       0.87942963
