12
Properties=species:S:1:pos:R:3 atomization_energy=-1118.53 smiles=N.C.C.C.O.H.H.H.H.H.H.H pbc="F F F"
N        1.08801958       0.17381993       0.18559992
C        2.47921894      -0.05879998      -0.18574993
C        3.22329865       1.23063947      -0.10004996
C        3.82955856       1.69647931       1.19629959
O        4.62643808       1.09528962       0.16471994
H        0.58750974      -0.71394972       0.15625993
H        0.64512977       0.76581969      -0.51601979
H        2.53175911      -0.45439983      -1.20512954
H        2.90966882      -0.80936966       0.48606980
H        2.91846887       1.96399927      -0.83393967
H        3.64200856       1.11880954       2.09290913
H        3.93671835       2.76197882       1.35709945
