18
Properties=species:S:1:pos:R:3 atomization_energy=-1794.78 smiles=N.C.C.C.C.C.C.H.H.H.H.H.H.H.H.H.H.H pbc="F F F"
N        2.44422892      -0.43065984      -1.58852935
C        2.44368893       0.01991999      -0.19577993
C        3.29343867       1.28389954       0.00435000
C        3.33567867       1.71531937       1.48002943
C        3.38379874       3.24363882       1.47359940
C        2.80222894       3.58395849       0.14317994
C        2.74678899       2.51531897      -0.66027974
H        1.93247918      -1.30887945      -1.65891930
H        3.39921870      -0.62680976      -1.88475931
H        2.83490887      -0.78692972       0.43462983
H        1.40681943       0.20118993       0.11077996
H        4.31368812       1.10841955      -0.36102985
H        4.19597837       1.28572945       2.00470926
H        2.43522902       1.38154946       2.01347916
H        4.41024823       3.61665860       1.54768941
H        2.79339886       3.65940857       2.29532901
H        2.49609889       4.58093821      -0.14086995
H        2.39352901       2.52813891      -1.68281936
