20
Properties=species:S:1:pos:R:3 atomization_energy=-1909.13 smiles=C.N.C.C.C.C.C.H.H.H.H.H.H.H.H.H.H.H.H.H pbc="F F F"
C        1.11058960       2.25256920      -0.28805988
N        2.55183887       2.21177910      -0.49398981
C        3.17264870       1.18707953       0.34719986
C        4.67416805       1.14929961       0.09439996
C        5.52608783       2.31693916       0.66754972
C        6.61594741       1.27224953       0.97980959
C        5.49204784       0.21767991       1.02858957
H        0.67034971       3.01540873      -0.93742960
H        0.86016969       2.50712905       0.74832972
H        0.64560977       1.29468948      -0.54288982
H        2.94549885       3.12359879      -0.26268990
H        2.74831887       0.20501992       0.10681996
H        2.96927880       1.38960942       1.40576948
H        4.90079786       0.95250961      -0.96470964
H        5.10427778       2.79101887       1.56172937
H        5.80791763       3.09399882      -0.04765998
H        7.32885689       1.11968955       0.16159994
H        7.16742696       1.42351947       1.91092921
H        5.74550752      -0.76280969       0.61749975
H        5.06180791       0.08306997       2.02874924
