19
Properties=species:S:1:pos:R:3 atomization_energy=-1763.37 smiles=C.C.N.C.C.N.C.H.H.H.H.H.H.H.H.H.H.H.H pbc="F F F"
C        2.67828887      -0.59024974      -0.02028999
C        1.60988932       0.46906980       0.22681990
N        2.17273917       1.65281931       0.91445964
C        1.21221954       2.77610887       0.81910965
C        1.36733943       3.52679865      -0.49770981
N        2.62384891       1.39335945       2.17637904
C        3.67568848       2.08045923       2.47757904
H        2.24501920      -1.43877945      -0.55983979
H        3.09665889      -0.97090961       0.91681963
H        3.49692869      -0.18856992      -0.62668978
H        0.79371970       0.03704998       0.81956965
H        1.19422959       0.74480971      -0.74843968
H        1.40652950       3.49660873       1.62395931
H        0.17931993       2.43432896       0.95783961
H        2.38997897       3.90264858      -0.61427975
H        0.69091976       4.38791843      -0.51938980
H        1.13308960       2.89861898      -1.36226946
H        4.13616829       1.96219926       3.47051869
H        4.15701842       2.79642886       1.78773932
