11
Properties=species:S:1:pos:R:3 atomization_energy=-1264.38 smiles=C.C.C.C.N.C.N.H.H.H.H pbc="F F F"
C        0.98030965      -0.18172993       0.00574000
C        2.47352912      -0.03624999       0.00342000
C        3.13901875       1.13798949       0.00000000
C        2.43601907       2.35561902       0.00000000
N        1.86051923       3.35242867       0.00000000
C        4.54501836       1.13798949       0.00000000
N        5.69602789       1.13798949       0.00000000
H        0.70992970      -1.24327950      -0.00936000
H        0.53739978       0.28352990      -0.88100966
H        0.54365981       0.25767989       0.90748962
H        3.03252891      -0.97230961       0.00586000
