11
Properties=species:S:1:pos:R:3 atomization_energy=-1128.5 smiles=C.C.C.C.O.H.H.H.H.H.H pbc="F F F"
C       -1.21131948       0.01593000      -0.15332994
C       -0.37341986      -1.23748951       0.08654997
C        0.99760960      -0.69407970      -0.02124999
C        0.92119966       0.62783978      -0.08947997
O       -0.34561986       1.16908957      -0.06156997
H       -1.65858937       0.00720000      -1.15413958
H       -2.01723914       0.11357995       0.58107978
H       -0.58612974      -2.01000922      -0.65744972
H       -0.54964977      -1.65204933       1.08441957
H        1.90756930      -1.27406947      -0.00593000
H        1.72141935       1.34861948      -0.13417995
