21
Properties=species:S:1:pos:R:3 atomization_energy=-1932.69 smiles=C.C.C.C.N.C.N.H.H.H.H.H.H.H.H.H.H.H.H.H.H pbc="F F F"
C        1.23519948      -0.29279989       1.14536955
C        2.70657899      -0.34640987       0.70672970
C        2.86835891      -1.48534946      -0.30785987
C        3.19529871       1.01799961       0.13462995
N        3.04276876       2.09788913       1.13482955
C        4.67390815       1.00389959      -0.34020988
N        5.62478771       0.83807966       0.76806972
H        1.09064962       0.39306983       1.98519926
H        0.89209962      -1.27834951       1.47850939
H        0.58886974       0.02910999       0.32215986
H        3.30384859      -0.60399978       1.59147935
H        2.37095900      -1.24666945      -1.25392952
H        2.43447910      -2.41535895       0.07602997
H        3.92238846      -1.69240933      -0.51457980
H        2.57512904       1.28014952      -0.73199973
H        3.45349869       1.77014931       2.00978919
H        2.05319925       2.23814923       1.33213947
H        4.89616809       1.95553923      -0.83879969
H        4.84209804       0.22135991      -1.08474961
H        5.49949767       1.64246932       1.38565944
H        6.57136754       0.92452961       0.39932986
