20
Properties=species:S:1:pos:R:3 atomization_energy=-1920.55 smiles=C.C.C.N.C.C.C.H.H.H.H.H.H.H.H.H.H.H.H.H pbc="F F F"
C        3.33108876      -1.25048949       0.06546997
C        2.57885901      -0.09834996       0.72130972
C        3.08883889       1.28586949       0.28248989
N        2.26003922       2.33189912       0.88037966
C        4.51520845       1.52903935       0.69032974
C        5.51796781       1.76163931      -0.17386992
C        6.93363751       2.00237923       0.23593992
H        2.87754881      -2.20462904       0.35153986
H        4.37916808      -1.27457955       0.37722987
H        3.29482876      -1.17163950      -1.02512961
H        2.64617897      -0.20678991       1.81229923
H        1.51604946      -0.19298993       0.46148980
H        2.99172871       1.36698944      -0.80719968
H        2.22810922       2.20442920       1.88991923
H        1.30114953       2.22380924       0.55588980
H        4.72794792       1.50994936       1.75627930
H        5.31369809       1.79221934      -1.24139951
H        7.06590703       1.95013922       1.32134953
H        7.25604721       2.99229872      -0.10053996
H        7.58608690       1.25314957      -0.22315992
