15
Properties=species:S:1:pos:R:3 atomization_energy=-1480.89 smiles=C.N.N.C.C.C.C.H.H.H.H.H.H.H.H pbc="F F F"
C        1.23161953       0.01758999      -1.05502960
N        2.52029898       0.02451999      -0.36871987
N        3.17961885       1.21253950      -0.39451986
C        4.39715830       1.12438960       0.01617999
C        5.08281802       2.38589902       0.00000000
C        5.67789789       3.41660862       0.00000000
C        6.39989735       4.66714820       0.00000000
H        0.79449966      -0.98400964      -1.00916959
H        1.35338942       0.28439988      -2.10933917
H        0.53549979       0.72099973      -0.58822977
H        2.36715913      -0.28417988       0.59520975
H        4.91705808       0.21439992       0.35649985
H        5.71984796       5.51476775      -0.12905995
H        7.13222725       4.69936838      -0.81252967
H        6.93865739       4.81113800       0.94157964
