14
Properties=species:S:1:pos:R:3 atomization_energy=-1497.17 smiles=N.C.C.C.C.C.C.H.H.H.H.H.H.H pbc="F F F"
N       -0.05403998       0.02563999      -1.30311948
C        0.02296999      -1.09088959      -0.31320986
C        1.26361955      -0.65309972       0.43796981
C        1.22900954       0.69470971       0.46716981
C       -0.03270999       1.10129952      -0.26523990
C       -1.23317957       0.63124972       0.52544978
C       -1.19863958      -0.71744974       0.49616980
H        0.80841970       0.05972998      -1.84040931
H        0.03587999      -2.07493923      -0.78057968
H        1.97515925      -1.30159944       0.92083965
H        1.90717919       1.35709945       0.97845961
H       -0.07073997       2.10422921      -0.68963974
H       -1.93559926       1.25772950       1.04808961
H       -1.86794925      -1.40134939       0.99050963
