17
Properties=species:S:1:pos:R:3 atomization_energy=-1631.9 smiles=N.C.C.C.N.C.C.H.H.H.H.H.H.H.H.H.H pbc="F F F"
N        1.05807959       0.23585991      -0.35818987
C        2.47817909      -0.00969000      -0.09138996
C        3.19975867      -1.03704961      -0.90668967
C        3.51823857       0.42184982      -1.10076962
N        4.80744791       0.93797963      -0.60187975
C        5.81142755       0.90661964      -1.66169936
C        5.16852788       2.19954911      -1.23913951
H        0.79667967       1.16301949      -0.02258999
H        0.48283980      -0.42269984       0.16663994
H        2.76089885       0.06195997       0.95753965
H        2.66157899      -1.54093942      -1.70035928
H        3.93165835      -1.65866936      -0.40393985
H        3.13058887       0.86594965      -2.01775920
H        5.54313785       0.47792982      -2.61957896
H        6.82600712       0.71119975      -1.33721953
H        5.75048753       2.88103881      -0.63122973
H        4.46191810       2.67518899      -1.90773924
