12
Properties=species:S:1:pos:R:3 atomization_energy=-1270.57 smiles=C.C.N.C.N.C.N.H.H.H.H.H pbc="F F F"
C        0.74116970       0.09858996       0.06057998
C        2.07797919      -0.00723000       0.02449999
N        2.83134898      -1.16618953       0.00187000
C        2.43667892      -2.46556909       0.01295999
N        3.20944869      -3.49269861      -0.01260000
C        2.87112875       1.19034949       0.00523000
N        3.54466850       2.13416907      -0.01130999
H        0.24933990       1.06820956       0.07548997
H        0.09084996      -0.76835972       0.07607997
H        3.83453857      -1.01082961      -0.02800999
H        1.34606942      -2.61961908       0.04767998
H        4.19198826      -3.21363865      -0.04393998
