15
Properties=species:S:1:pos:R:3 atomization_energy=-1478.38 smiles=C.N.N.C.C.C.C.H.H.H.H.H.H.H.H pbc="F F F"
C        1.44067938      -0.31951988      -1.05214962
N        2.78672899      -0.25827990      -0.49063980
N        3.29183864       0.99418963      -0.34843985
C        4.55690820       1.06343961      -0.07288997
C        5.53854795      -0.05213998       0.09255996
C        4.99223816       2.42949909       0.07333997
C        5.35783789       3.56769852       0.19492992
H        1.13082960      -1.36345946      -1.15712958
H        1.41373949       0.14156994      -2.04447919
H        0.72170972       0.19122992      -0.40387984
H        2.77595899      -0.74686973       0.40855985
H        5.22545785      -0.69936970       0.91669965
H        6.53737751       0.33571986       0.31120989
H        5.58406801      -0.64129976      -0.82780965
H        5.67010792       4.58066822       0.29798987
