15
Properties=species:S:1:pos:R:3 atomization_energy=-1458.71 smiles=C.C.C.O.N.C.H.H.H.H.H.H.H.H.H pbc="F F F"
C        1.52117936      -0.32312989       0.34330986
C        3.02009881      -0.21565991       0.12759995
C        3.44316875       1.17168959      -0.31266987
O        2.66345886       2.10315920      -0.48116981
N        4.80407828       1.27704950      -0.51002979
C        5.40710810       2.53753900      -0.86022968
H        1.25331951      -1.33516946       0.66180975
H        0.97421963      -0.09824996      -0.57837977
H        1.18341959       0.37868986       1.11304958
H        3.33190859      -0.93340965      -0.63936974
H        3.54138869      -0.45858982       1.06024964
H        5.40287801       0.51829979      -0.21138991
H        4.82733817       3.02593877      -1.64809933
H        6.42643755       2.35249920      -1.20694948
H        5.42637762       3.17654873       0.02658999
