17
Properties=species:S:1:pos:R:3 atomization_energy=-1646.06 smiles=N.C.C.C.C.N.C.H.H.H.H.H.H.H.H.H.H pbc="F F F"
N        1.09242957      -0.15832993      -0.04590998
C        2.50331910       0.12920995      -0.00211000
C        3.34051863      -0.57369978      -1.08656955
C        4.44169829      -0.31419989       0.00771000
C        3.29804876      -0.71975970       1.00854961
N        4.50800843       1.17180958       0.10902996
C        3.07352870       1.51832941       0.10382996
H        0.58002976       0.15662994       0.77685969
H        0.86791967      -1.14654958      -0.15638994
H        3.46245872      -0.05379998      -2.04247921
H        3.11801874      -1.62870932      -1.28802944
H        5.37639786      -0.87142965      -0.01458999
H        3.07049870      -1.79182924       1.05250957
H        3.37832871      -0.33754986       2.03135922
H        4.93240790       1.50561935       0.97380959
H        2.82761876       2.14954916      -0.75564973
H        2.78168893       2.02553920       1.02939962
