20
Properties=species:S:1:pos:R:3 atomization_energy=-1914.32 smiles=C.N.C.C.C.C.C.H.H.H.H.H.H.H.H.H.H.H.H.H pbc="F F F"
C        0.88481967       0.71728970       0.08302997
N        2.32748913       0.51726980       0.08217997
C        3.03364875       1.77847927      -0.16533993
C        4.55164811       1.55021941      -0.16113994
C        5.30941805       2.83181882      -0.38379985
C        6.15088778       3.03708878      -1.40972944
C        6.91700736       4.30350807      -1.61903935
H        0.38492985      -0.23628991       0.28020988
H        0.52998982       1.08988960      -0.88370967
H        0.58175974       1.41598940       0.86983965
H        2.57250909      -0.15534995      -0.64417975
H        2.77366883       2.50657897       0.61332979
H        2.72854897       2.19763921      -1.13257951
H        4.81656817       0.80994971      -0.92656965
H        4.86173799       1.13325954       0.80540971
H        5.16028775       3.61457864       0.35711986
H        6.31137753       2.25260907      -2.14480912
H        6.70343722       5.04968793      -0.84761968
H        6.66301728       4.73547799      -2.59164892
H        7.99089689       4.09503829      -1.60470933
