22
Properties=species:S:1:pos:R:3 atomization_energy=-2061.92 smiles=C.C.N.C.C.C.C.H.H.H.H.H.H.H.H.H.H.H.H.H.H.H pbc="F F F"
C        0.95846962      -0.11456996      -0.01811999
C        2.48643890       0.00785000      -0.03667999
N        2.99618891      -0.77072967      -1.17366951
C        3.02505889       1.47968942      -0.04364999
C        2.57924911       2.27179912      -1.28835949
C        2.53242904       2.23374908       1.20953954
C        4.57007838       1.47053938      -0.00279000
H        0.52869978       0.36491986       0.86587963
H        0.65577973      -1.16781959       0.01809999
H        0.49875979       0.32733988      -0.90758967
H        2.86203877      -0.48074981       0.87218967
H        2.59849896      -0.41564982      -2.04229917
H        2.67722883      -1.73615928      -1.09674961
H        2.93640886       1.81042933      -2.21481919
H        2.97669885       3.29354868      -1.26351950
H        1.48913947       2.35265917      -1.34828943
H        2.78075883       1.68414940       2.12441924
H        1.44900947       2.39065900       1.19109954
H        2.99660879       3.22438873       1.28280947
H        4.93801823       0.91141962       0.86489964
H        4.97016826       2.48889913       0.06629997
H        4.99804784       1.01642960      -0.90296967
