18
Properties=species:S:1:pos:R:3 atomization_energy=-1760.54 smiles=C.C.N.C.C.C.C.H.H.H.H.H.H.H.H.H.H.H pbc="F F F"
C        0.96720962      -0.12431995       0.01571000
C        2.49627906      -0.04622998      -0.02289999
N        2.96080879      -0.78322966      -1.21145952
C        3.02585878       1.41951939      -0.01781999
C        2.48669905       2.23589919       1.16191958
C        4.50784845       1.45069945       0.02520999
C        5.70822760       1.48079942       0.05757998
H        0.57384979       0.26294989       0.96071959
H        0.62259974      -1.16188955      -0.06491997
H        0.51636980       0.44559981      -0.80417965
H        2.88857897      -0.57066978       0.85772964
H        2.62161906      -0.32952986      -2.05814923
H        2.57448888      -1.72566937      -1.21016948
H        2.70049882       1.91653929      -0.94184963
H        2.70277888       1.74532925       2.11781927
H        1.40467941       2.38082918       1.08675956
H        2.94302878       3.23244869       1.19134948
H        6.77308720       1.49763937       0.08127997
