10
Properties=species:S:1:pos:R:3 atomization_energy=-871.19 smiles=C.N.C.H.H.H.H.H.H.H pbc="F F F"
C        1.00459962      -0.00103000      -0.00103000
N        2.46071902       0.01316000       0.00989000
C        2.96821875       1.37809947       0.00297000
H        0.64963975      -1.03647959       0.00675000
H        0.60438976       0.48528981      -0.89693965
H        0.59688978       0.49306981       0.88715967
H        2.80731897      -0.47776980      -0.81351969
H        2.63465903       1.92968928       0.88826968
H        2.65370904       1.91919924      -0.89569963
H        4.06257840       1.36063940       0.01948999
