17
Properties=species:S:1:pos:R:3 atomization_energy=-1654.61 smiles=C.C.N.C.C.C.N.H.H.H.H.H.H.H.H.H.H pbc="F F F"
C        2.52954893      -0.76403968       1.01090960
C        2.50161889       0.25260990      -0.12309995
N        2.73057897       1.62469939       0.33159986
C        4.01901846       1.84290929       0.99215962
C        4.14474831       3.35161868       0.90811963
C        3.19943871       3.61327863      -0.21462992
N        2.43185914       2.62651908      -0.53828982
H        2.25717905      -1.75462930       0.63170973
H        1.81504926      -0.49800980       1.79755930
H        3.52475855      -0.84452969       1.45980937
H        1.51333943       0.19820992      -0.59581977
H        3.23527883      -0.02377999      -0.88944964
H        4.83969786       1.37057949       0.43867982
H        4.03353835       1.49400946       2.02888915
H        5.15290807       3.68520843       0.65333975
H        3.78628854       3.86719857       1.80342928
H        3.16349867       4.59718835      -0.70241969
