17
Properties=species:S:1:pos:R:3 atomization_energy=-1667.02 smiles=N.C.C.C.N.C.C.H.H.H.H.H.H.H.H.H.H pbc="F F F"
N        0.99434961       0.01681000       0.00823999
C        2.44755894      -0.00424000      -0.01158000
C        3.02597889      -1.26844955       0.64097974
C        3.30158871      -0.88814963       2.10255916
N        4.48200821      -1.54445944       2.64017903
C        3.47883855       0.58982974       2.01605924
C        2.99130883       1.07483956       0.86637969
H        0.63558976      -0.74624970      -0.56217979
H        0.66524972       0.87679964      -0.42678984
H        2.81296892       0.09624996      -1.03871960
H        3.95698837      -1.53806941       0.12116995
H        2.36694895      -2.14126917       0.56267978
H        2.43687902      -1.11430959       2.73675882
H        5.27974793      -1.34845950       2.03811918
H        4.34516847      -2.55268897       2.60418903
H        3.87865844       1.19226948       2.81995900
H        2.96252893       2.12519920       0.61356976
