16
Properties=species:S:1:pos:R:3 atomization_energy=-1650.66 smiles=N.C.C.C.C.C.C.H.H.H.H.H.H.H.H.H pbc="F F F"
N        1.64826941       0.50622981       1.04983958
C        2.71591904       0.02800999       0.16046994
C        3.40167868       1.05525960      -0.70891975
C        4.15903834       0.42329985       0.42233982
C        4.93960792      -0.80030971       0.18242993
C        4.19525846      -1.85331921      -0.18303993
C        2.73886882      -1.45227943      -0.24418990
H        0.86776965       0.87254963       0.50516980
H        1.26987951      -0.25783990       1.61232936
H        3.12180875       2.09753915      -0.59813976
H        3.65684866       0.78361970      -1.72698931
H        4.38712813       1.00102964       1.30795945
H        6.01751759      -0.82380970       0.29611988
H        4.56734816      -2.84300895      -0.40707983
H        2.33882915      -1.58323935      -1.25427951
H        2.16035904      -2.06546924       0.45383981
