16
Properties=species:S:1:pos:R:3 atomization_energy=-1621.02 smiles=C.C.N.C.C.C.C.H.H.H.H.H.H.H.H.H pbc="F F F"
C        1.09388956      -0.18113993       0.23622990
C        2.57186892      -0.03238999      -0.14316995
N        2.80496900      -0.74691970      -1.40706949
C        2.99659870       1.43341943      -0.17165993
C        3.41744863       2.08570923      -1.27029951
C        2.99320888       2.16274912       1.06162964
C        2.99144887       2.77177887       2.09512914
H        0.89147964       0.24316990       1.22571952
H        0.80299969      -1.23729950       0.27403988
H        0.44000982       0.32294988      -0.48511980
H        3.17799863      -0.53712979       0.62017976
H        2.12283915      -0.42847983      -2.09392917
H        2.61057906      -1.73714930      -1.26699953
H        3.48204871       1.59658931      -2.23628904
H        3.72777848       3.12531868      -1.23128948
H        2.99378874       3.31491862       3.01131870
