13
Properties=species:S:1:pos:R:3 atomization_energy=-1310.34 smiles=C.C.N.C.C.O.H.H.H.H.H.H.H pbc="F F F"
C        1.02397961      -0.02156999       0.01407999
C        2.53593897      -0.05758998       0.05374998
N        3.09398872      -1.31721950       0.14934994
C        3.20989885       1.10367951      -0.00120000
C        4.67824825       1.21775947       0.09330996
O        5.24167770       2.29733908      -0.04490998
H        0.62973978       0.99897964      -0.03715998
H        0.61135978      -0.49220981       0.91298962
H        0.65554973      -0.56529980      -0.86249965
H        2.46681913      -2.06991922      -0.13132995
H        4.01335842      -1.42218943      -0.27106988
H        2.69880896       2.05691924      -0.09134996
H        5.23683799       0.29128988       0.29616987
