20
Properties=species:S:1:pos:R:3 atomization_energy=-1920.45 smiles=C.C.C.C.C.C.N.H.H.H.H.H.H.H.H.H.H.H.H.H pbc="F F F"
C        1.14705954      -0.55586980      -0.05490998
C        2.64994905      -0.32993986       0.00449000
C        2.99274888       1.15920954      -0.04102999
C        4.47768830       1.37935948       0.02138999
C        5.18604774       1.97283919      -0.95326964
C        6.65975716       2.21032921      -0.90275967
N        7.29152700       1.56501939      -2.04270921
H        0.92284966      -1.62664941      -0.01953999
H        0.72584972      -0.15112994      -0.98082964
H        0.64428976      -0.07524997       0.79060972
H        3.12406888      -0.85097966      -0.83608965
H        3.04304885      -0.77931966       0.92459963
H        2.53012904       1.67335933       0.80971971
H        2.57197894       1.60687938      -0.94983964
H        4.98175784       1.03604962       0.92250964
H        4.67959822       2.32385909      -1.85040933
H        7.09896697       1.83060927       0.02618999
H        6.85100710       3.28752882      -0.94390960
H        7.14909711       0.55870979      -1.96641925
H        8.29756668       1.71139928      -1.98965921
