19
Properties=species:S:1:pos:R:3 atomization_energy=-1809.16 smiles=N.C.C.C.C.N.C.H.H.H.H.H.H.H.H.H.H.H.H pbc="F F F"
N        0.99761963       0.01279999      -0.00697000
C        2.44961897       0.01236999       0.04588999
C        3.01171889       1.12070959       0.92930965
C        4.44625842       0.65734973       1.14019954
C        4.29924822      -0.84574965       1.39171942
N        5.49073774      -1.58399937       0.99276964
C        3.02689889      -1.27567947       0.64126974
H        0.67297976      -0.72971973      -0.62483976
H        0.66704973       0.88921964      -0.40983983
H        2.83917882       0.13619994      -0.97336959
H        2.48515908       1.17503954       1.89018922
H        2.96052896       2.10427917       0.45203981
H        5.03505777       0.85798967       0.23561991
H        4.93040792       1.17177955       1.97607925
H        4.14354847      -1.01013961       2.46492892
H        5.65612775      -1.46814943      -0.00654000
H        5.33623783      -2.58177898       1.13749959
H        3.21543879      -2.01539914      -0.14602995
H        2.33329906      -1.74260937       1.35212953
