17
Properties=species:S:1:pos:R:3 atomization_energy=-1641.79 smiles=C.N.C.C.N.C.C.H.H.H.H.H.H.H.H.H.H pbc="F F F"
C        1.08927959       0.03242999       0.30356990
N        2.52318893      -0.00412000      -0.00294000
C        2.87273887      -1.28530944      -0.66717974
C        2.73491882      -1.01622963      -2.13589905
N        3.78182859      -0.36437987      -2.91914890
C        2.73340887       0.45689984      -2.31854904
C        2.87027890       1.07681960      -0.96003962
H        0.82977967       0.97730962       0.79295968
H        0.83145969      -0.76507973       1.00866960
H        0.45996982      -0.07837997      -0.58650975
H        2.24259909      -2.11859922      -0.33831989
H        3.90989856      -1.54274939      -0.42464982
H        1.99760916      -1.61314931      -2.65283900
H        4.64811838      -0.29666990      -2.37997908
H        1.99502920       0.90799964      -2.96547894
H        3.90687841       1.38778949      -0.78798970
H        2.23835917       1.96383916      -0.84450970
