18
Properties=species:S:1:pos:R:3 atomization_energy=-1788.36 smiles=N.C.C.C.C.C.C.H.H.H.H.H.H.H.H.H.H.H pbc="F F F"
N        1.05041957       0.13266996       0.15074995
C        2.47989898      -0.06608997      -0.04090999
C        2.80771892      -1.50182946      -0.48398980
C        2.69813902      -1.48622946      -2.01345922
C        3.14516882      -0.10172995      -2.38802895
C        2.17686907       1.04347958      -2.44890891
C        2.96713877       0.78615967      -1.18571959
H        0.88178968       1.10509963       0.40300983
H        0.73147974      -0.43180984       0.93555964
H        3.01074893       0.17723994       0.88569968
H        2.17054918      -2.26414919      -0.02410999
H        3.84476858      -1.72976937      -0.20499992
H        3.33405870      -2.25539910      -2.46244901
H        1.66532940      -1.66176938      -2.33387917
H        4.07626838      -0.05815998      -2.93382877
H        2.44883902       1.90623926      -3.04599885
H        1.11532951       0.82384969      -2.45922901
H        3.77330863       1.45555948      -0.91939966
