17
Properties=species:S:1:pos:R:3 atomization_energy=-1638.11 smiles=C.N.N.C.C.C.C.H.H.H.H.H.H.H.H.H.H pbc="F F F"
C        4.76844809      -1.72350929      -0.32577987
N        4.22568835      -0.47356982       0.19706992
N        4.69766817       0.64960973      -0.39644985
C        4.49524803       1.71852927       0.30774989
C        4.91967829       3.07082875      -0.14245995
C        5.56429785       3.19003887      -1.48566941
C        4.70107817       4.10434831       0.68410972
H        4.34674806      -2.56938901       0.22561991
H        5.85627792      -1.75189933      -0.20489992
H        4.52584824      -1.84554930      -1.38621949
H        3.20641870      -0.51428980       0.11335996
H        3.99763843       1.67324932       1.29517950
H        4.88617829       2.83840895      -2.27009916
H        6.48383736       2.59718885      -1.52619936
H        5.82828782       4.22741834      -1.71771929
H        4.23425828       3.98285838       1.65659936
H        4.99439812       5.11227820       0.40613984
