17
Properties=species:S:1:pos:R:3 atomization_energy=-1665.58 smiles=C.C.C.N.C.C.N.H.H.H.H.H.H.H.H.H.H pbc="F F F"
C        2.88040899      -0.72926969      -1.37290951
C        2.47812912      -0.00603000      -0.09056997
C        3.02738892       1.43281939       0.00000000
N        2.43327901       2.04776921       1.21270957
C        2.76348903       3.46208855       1.34400951
C        4.47138809       1.43281939       0.00000000
N        5.62239763       1.43281939       0.00000000
H        2.39618909      -1.71076933      -1.41645949
H        3.96055835      -0.89193964      -1.42078950
H        2.57488908      -0.16098994      -2.25656916
H        2.81446877      -0.60269977       0.76843971
H        1.38091952       0.01925999      -0.04824998
H        2.65965901       1.98402920      -0.87487966
H        2.76077899       1.54784939       2.03954914
H        2.47190891       4.02625834       0.45126982
H        3.82925854       3.61782867       1.53534940
H        2.21249926       3.88241843       2.19157923
