19
Properties=species:S:1:pos:R:3 atomization_energy=-1779.09 smiles=C.N.C.C.C.C.N.H.H.H.H.H.H.H.H.H.H.H.H pbc="F F F"
C        2.06522914      -0.35181986       1.52919946
N        3.40994859       0.20551991       1.46406948
C        3.64542866       0.83437967       0.16154993
C        5.03284785       1.45011947       0.14583994
C        5.23103791       2.62758896       1.06879963
C        6.22087741       0.55233981      -0.13744995
N        5.73498783       1.47692941      -1.15249955
H        1.90357931      -0.79631966       2.51556903
H        1.91860929      -1.13431959       0.77834970
H        1.30664947       0.42510982       1.39050949
H        4.08728844      -0.54584979       1.58986935
H        2.90642888       1.62283934      -0.02409999
H        3.54464856       0.08926996      -0.63818972
H        6.19820746       3.11717873       0.91073965
H        5.19338806       2.30524916       2.11398913
H        4.44834823       3.37521872       0.91006965
H        6.04722758      -0.49831979      -0.33505986
H        7.17816719       0.78269970       0.31409987
H        6.34024775       2.29703905      -1.22309956
