15
Properties=species:S:1:pos:R:3 atomization_energy=-1416.38 smiles=N.C.C.C.C.O.H.H.H.H.H.H.H.H.H pbc="F F F"
N        2.98093877      -0.99901963      -0.54456977
C        2.34019906       0.09551997       0.16856993
C        3.28209865       1.25446951       0.19212992
C        3.43550873       2.14530924      -1.01489959
C        2.73961900       2.65921894       0.21433992
O        3.46810867       3.59563866       1.01845961
H        2.35255900      -1.80007933      -0.55864979
H        3.80786842      -1.29886947      -0.03115999
H        2.09889921      -0.21267992       1.19216955
H        1.40021945       0.35255985      -0.33390986
H        4.16273827       1.04873961       0.78832971
H        2.82992886       1.93045927      -1.88891924
H        4.42674817       2.50951914      -1.25206946
H        1.66372936       2.79338902       0.15573994
H        4.42358848       3.57050848       0.84087966
