17
Properties=species:S:1:pos:R:3 atomization_energy=-1662.83 smiles=C.N.C.N.C.C.C.H.H.H.H.H.H.H.H.H.H pbc="F F F"
C        0.75915972       0.57118977      -0.79940971
N        2.00806917       0.62426974      -0.04408998
C        2.79304888       1.56528939      -0.43902983
N        4.01124842       1.79837925       0.12029995
C        4.97968821       2.74115897      -0.16347993
C        4.72629818       3.72809843      -1.27551949
C        6.13301768       2.79762894       0.52290979
H        0.21338992      -0.33664986      -0.52457981
H        0.93825965       0.53399981      -1.87964922
H        0.12248995       1.43010948      -0.56312975
H        2.53043891       2.25324924      -1.26170952
H        4.23187829       1.15665948       0.87502967
H        4.57558829       3.20417876      -2.22531919
H        5.56373768       4.42075833      -1.41351945
H        3.83675858       4.32884819      -1.05844963
H        6.35290772       2.10567923       1.32939953
H        6.89352744       3.53920855       0.29847987
