12
Properties=species:S:1:pos:R:3 atomization_energy=-1120.22 smiles=O.C.C.C.N.H.H.H.H.H.H.H pbc="F F F"
O        3.16514866      -1.00076961      -0.54530980
C        2.36592902       0.02316999       0.03323999
C        3.17060886       1.27821943       0.09244996
C        3.22957867       2.19924909      -1.09652957
N        2.49779910       2.57721910       0.11144995
H        2.60231900      -1.79108927      -0.59916978
H        2.07771916      -0.28817989       1.04200962
H        1.46052940       0.14233995      -0.57158979
H        4.05422851       1.17431951       0.71052975
H        2.62765886       1.96569923      -1.96581921
H        4.15390844       2.72662899      -1.29517950
H        3.03402876       3.25221884       0.66015976
