20
Properties=species:S:1:pos:R:3 atomization_energy=-1910.97 smiles=C.N.C.C.C.C.C.H.H.H.H.H.H.H.H.H.H.H.H.H pbc="F F F"
C        1.16270950      -0.01187000       0.03903999
N        2.58969890       0.16596994       0.26554988
C        2.98750872       1.57451941       0.35704986
C        2.37667909       2.29281907       1.56102940
C        4.49380823       1.55928933       0.47879982
C        5.36331802       1.60113935      -0.75378973
C        5.30528789       2.79160883       0.16159994
H        0.95337966      -1.07446951      -0.12523995
H        0.81980968       0.53632977      -0.84493967
H        0.57258977       0.29502987       0.90808967
H        3.09705884      -0.25887990      -0.51040980
H        2.69812893       2.10312917      -0.55995977
H        2.59498903       1.76482929       2.49658892
H        1.29120945       2.39048918       1.46539939
H        2.78702901       3.30513877       1.65526933
H        4.83181806       0.95513960       1.31592945
H        4.89088830       1.69020938      -1.72647935
H        6.26834748       1.00328958      -0.75454969
H        6.16840765       2.99711876       0.78389966
H        4.78988818       3.67834855      -0.18705993
