19
Properties=species:S:1:pos:R:3 atomization_energy=-1779.25 smiles=C.C.N.C.C.N.C.H.H.H.H.H.H.H.H.H.H.H.H pbc="F F F"
C        3.14628867      -1.14815958      -0.48754982
C        2.43389899       0.06314997       0.10960996
N        1.92575922      -0.26263990       1.44348947
C        3.37153873       1.23642947       0.22608991
C        3.71053845       2.07055914      -0.99405962
N        2.84950875       2.59547905       0.05564998
C        3.50055873       3.56730867       0.92709961
H        3.51529865      -0.92219965      -1.49398941
H        2.46952892      -2.00614919      -0.56382978
H        4.00999837      -1.44704948       0.11765995
H        1.58123937       0.32173986      -0.52981981
H        2.67929896      -0.62153977       2.02514922
H        1.24073954      -1.01189963       1.36743948
H        4.16177840       1.07385963       0.95133962
H        3.21748872       1.84634932      -1.93336928
H        4.71420798       2.46679895      -1.08877960
H        3.01237874       3.56752870       1.90721931
H        3.39145876       4.57045839       0.50217980
H        4.57090805       3.38679871       1.08531963
