17
Properties=species:S:1:pos:R:3 atomization_energy=-1673.08 smiles=C.N.C.C.N.C.C.H.H.H.H.H.H.H.H.H.H pbc="F F F"
C        1.12315961       0.00647000      -0.17070993
N        2.56483898       0.01804999      -0.25207990
C        3.29293880      -1.17932955       0.11493995
C        4.66393804      -0.61620977       0.50432982
N        4.56886820       0.86644964       0.44471984
C        3.35333858       1.10865952       0.02792999
C        2.89612897       2.52899910      -0.13657994
H        0.72761970      -0.99536960      -0.36849987
H        0.68726972       0.68114974      -0.91360967
H        0.78923969       0.31452987       0.82553968
H        3.37035857      -1.86837922      -0.73185969
H        2.83054883      -1.70011931       0.95968964
H        5.44375769      -0.96276959      -0.18212993
H        4.93779820      -0.92685964       1.51802938
H        1.83329925       2.59347908      -0.37378987
H        3.46716874       2.99319879      -0.94593961
H        3.08743871       3.08013876       0.78835968
