15
Properties=species:S:1:pos:R:3 atomization_energy=-1685.29 smiles=C.C.C.C.C.C.C.H.H.H.H.H.H.H.H pbc="F F F"
C        0.98085960       0.00902000       0.05928998
C        2.47826892       0.03846999      -0.02693999
C        3.17327877       1.25301949      -0.07950997
C        4.56659823       1.26638951      -0.16933993
C        5.27554813       0.06743997      -0.21053992
C        4.59294817      -1.14632954      -0.16339993
C        3.20002867      -1.16155950      -0.07319997
H        0.56668976       1.01441960       0.18377993
H        0.66333976      -0.59016976       0.91828965
H        0.56096979      -0.42071982      -0.85522967
H        2.63462901       2.19719915      -0.05083998
H        5.09778782       2.21335920      -0.20788992
H        6.35966767       0.07900997      -0.28082989
H        5.14413805      -2.08190912      -0.19756992
H        2.67825885      -2.11520915      -0.03945998
