13
Properties=species:S:1:pos:R:3 atomization_energy=-1284.67 smiles=O.C.C.C.C.N.H.H.H.H.H.H.H pbc="F F F"
O        1.34249943      -0.39090985      -0.82784965
C        2.04453924       0.08047997       0.07006997
C        2.99718890       1.29926954      -0.06017998
C        2.37656908       2.71070890       0.01400999
C        3.60709853       3.06277888       0.86246969
N        3.71771854       1.62801932       1.20911953
H        2.02490926      -0.39056983       1.06767953
H        3.68302854       1.18231955      -0.91044965
H        1.42557950       2.76459903       0.55760975
H        2.28101905       3.24611873      -0.93399961
H        4.45694819       3.44297875       0.28382989
H        3.42428857       3.72811862       1.71009927
H        4.67568810       1.28208944       1.25643946
