12
Properties=species:S:1:pos:R:3 atomization_energy=-1118.32 smiles=N.C.C.O.C.H.H.H.H.H.H.H pbc="F F F"
N        0.99108961       0.00839000       0.07669997
C        2.44967903       0.02968999      -0.07107997
C        3.08010874       1.01957958       0.91828965
O        3.93680843      -0.02468999       1.45657940
C        3.10031871      -1.03422962       0.82326965
H        0.54428981      -0.78397972      -0.38385984
H        0.52953979       0.84035967      -0.28979989
H        2.82655898       0.08133997      -1.09542954
H        2.43567893       1.43575943       1.70043927
H        3.66477868       1.82185931       0.45849983
H        3.70124862      -1.77819931       0.29323989
H        2.46585901      -1.53264946       1.56393942
