17
Properties=species:S:1:pos:R:3 atomization_energy=-1764.64 smiles=C.C.C.C.C.C.C.H.H.H.H.H.H.H.H.H.H pbc="F F F"
C        0.99999962       0.00000000       0.00000000
C        2.19015911       0.00000000       0.00000000
C        3.63415853       0.00000000       0.00000000
C        4.21642830       1.12584958       0.85167969
C        5.63323778       0.64978976       1.12694949
C        5.47144802      -0.83942970       1.39186943
C        4.22867823      -1.27499956       0.61187977
H       -0.06567997      -0.00003000       0.00024000
H        4.00809832       0.10330996      -1.02707962
H        3.66747862       1.24244946       1.79539935
H        4.19957838       2.09085919       0.33400988
H        6.26225772       0.80856971       0.24343991
H        6.09320738       1.17431951       1.96981916
H        6.36123768      -1.40229942       1.09230958
H        5.31454794      -1.01710957       2.46205916
H        4.48894833      -1.99355925      -0.17310994
H        3.52825864      -1.78234927       1.28722955
