19
Properties=species:S:1:pos:R:3 atomization_energy=-1797.33 smiles=C.C.C.N.C.C.N.H.H.H.H.H.H.H.H.H.H.H.H pbc="F F F"
C        0.83242965       0.11078996       0.02549999
C        2.33412897      -0.12614995       0.03802998
C        3.10679882       1.19218949       0.01892999
N        4.54706829       0.94997962       0.00683000
C        5.18314795       0.73743974       1.30165949
C        5.25519812       0.68184971      -1.13645961
N        4.85500831       0.66830974      -2.35620897
H        0.29756990      -0.84355967       0.05107998
H        0.52839979       0.64649974      -0.87928965
H        0.52057979       0.69866974       0.89450964
H        2.60910898      -0.74004973      -0.82776966
H        2.60056908      -0.70335975       0.93167961
H        2.83553894       1.79485936       0.89467964
H        2.81504888       1.79446925      -0.84935969
H        4.54302796       1.05171958       2.13243909
H        6.11336764       1.31129943       1.36657940
H        5.41709789      -0.32364988       1.43769947
H        6.31701763       0.44903981      -0.93827965
H        3.86309843       0.89674965      -2.40473908
