20
Properties=species:S:1:pos:R:3 atomization_energy=-1906.64 smiles=C.C.C.C.N.C.C.H.H.H.H.H.H.H.H.H.H.H.H.H pbc="F F F"
C        0.46507982      -0.49683980      -0.70849974
C        1.91352923      -0.55875975      -0.25004990
C        2.56869889       0.82240970      -0.27707991
C        4.03394839       0.74696972       0.16197994
N        4.62357816       2.09189917       0.16441993
C        6.08003771       2.07997917       0.07090997
C        5.22579799       2.47345898      -1.10846951
H        0.01477999      -1.49396947      -0.67698975
H        0.39469983      -0.12491995      -1.73557930
H       -0.12334995       0.16268993      -0.06265998
H        2.46620900      -1.24677946      -0.90024967
H        1.95273924      -0.96928965       0.76548970
H        2.01627915       1.50208937       0.38365983
H        2.50498903       1.23502953      -1.29168951
H        4.57604803       0.04220998      -0.48308980
H        4.08657838       0.34738987       1.18172947
H        6.59395725       1.12813961       0.04256998
H        6.59206729       2.86576898       0.61070977
H        5.15981791       3.52513856      -1.36050945
H        5.14728815       1.79252933      -1.94700918
