16
Properties=species:S:1:pos:R:3 atomization_energy=-1675.41 smiles=N.C.C.C.C.C.C.H.H.H.H.H.H.H.H.H pbc="F F F"
N        0.99999962       0.00000000       0.00000000
C        2.15100915       0.00000000       0.00000000
C        3.59500859       0.00000000       0.00000000
C        4.17780824       1.12559952       0.85120966
C        5.59433789       0.64931973       1.12571951
C        5.43027766      -0.83935968       1.39386941
C        4.18907837      -1.27486948       0.60961976
H        3.96729837       0.10390996      -1.02750960
H        3.62861860       1.24249955       1.79472928
H        4.16088843       2.09035919       0.33308988
H        6.22230762       0.80484966       0.24119990
H        6.05519771       1.17383958       1.96652927
H        6.32041755      -1.40456939       1.09954960
H        5.26826787      -1.01410961       2.46402911
H        4.45365829      -1.99115920      -0.17703993
H        3.48833857      -1.78617929       1.28187950
