19
Properties=species:S:1:pos:R:3 atomization_energy=-1798.04 smiles=C.C.C.N.N.C.C.H.H.H.H.H.H.H.H.H.H.H.H pbc="F F F"
C        1.86543931      -0.65204977       0.91247966
C        2.29126900       0.16395993      -0.29480990
C        3.29776867       1.23192952       0.12278995
N        2.84196884       2.38882909       0.49771981
N        4.65619803       0.96066963       0.13979994
C        5.23478805      -0.16676994      -0.57476979
C        5.58665793       2.04007916       0.46229982
H        1.14406954      -1.42044948       0.61902976
H        1.39687947      -0.01518999       1.67064930
H        2.72358890      -1.14615960       1.37977949
H        1.41495938       0.65038974      -0.73806968
H        2.71192892      -0.48564979      -1.06610953
H        1.81949925       2.40790912       0.44482982
H        4.77157801      -1.10842952      -0.26426990
H        6.30817746      -0.26656990      -0.37842986
H        5.10163789      -0.04159999      -1.65468934
H        5.25921776       2.59506902       1.34829952
H        5.67226787       2.73359888      -0.38030985
H        6.58535729       1.65131933       0.69103974
