18
Properties=species:S:1:pos:R:3 atomization_energy=-1796.24 smiles=N.C.C.C.C.C.C.H.H.H.H.H.H.H.H.H.H.H pbc="F F F"
N        2.40458895      -0.42612983       1.46860942
C        2.54257907       0.01038999       0.08806997
C        3.04367892       1.41155947       0.01246999
C        4.18612837       1.82667934      -0.55116981
C        4.37162843       3.30112872      -0.42049982
C        2.98477875       3.77837847       0.00341000
C        2.27910916       2.55994905       0.59772979
H        2.09893921      -1.39853943       1.47804939
H        1.66162934       0.10730996       1.91498922
H        1.57608942      -0.06411997      -0.42233982
H        3.23091880      -0.66840973      -0.42824983
H        4.91724784       1.17743959      -1.01468959
H        5.12594799       3.52358849       0.34091987
H        4.67447792       3.75971857      -1.36612950
H        2.43105900       4.13344841      -0.87597963
H        3.03393893       4.61275819       0.71070972
H        1.22324957       2.54411905       0.31067986
H        2.35247901       2.55657891       1.69020938
