15
Properties=species:S:1:pos:R:3 atomization_energy=-1539.58 smiles=N.C.C.C.C.C.N.H.H.H.H.H.H.H.H pbc="F F F"
N        0.99999962       0.00000000       0.00000000
C        2.15100915       0.00000000       0.00000000
C        3.59500859       0.00000000       0.00000000
C        4.15940825       1.14697955       0.82823969
C        5.56802781       0.68268972       1.13395951
C        5.43110782      -0.82170967       1.28734954
N        4.17305836      -1.19867957       0.64224973
H        3.98039840       0.06847998      -1.02501959
H        3.60086847       1.28690947       1.76325928
H        4.15080830       2.09902917       0.28707989
H        6.22677742       0.91377967       0.28874988
H        5.97688771       1.16018959       2.02883919
H        6.28512751      -1.34548944       0.84379970
H        5.37899789      -1.09807952       2.34441904
H        4.30661831      -1.94264927      -0.04037998
