20
Properties=species:S:1:pos:R:3 atomization_energy=-1916.76 smiles=C.C.C.C.N.C.C.H.H.H.H.H.H.H.H.H.H.H.H.H pbc="F F F"
C        3.01034874      -1.08988960      -0.15326993
C        2.65453895      -0.02908999       0.88208964
C        3.51321869       1.24881956       0.77013973
C        3.05356879       2.33127915       1.77549924
N        1.68446935       2.78794901       1.53529944
C        4.97886814       0.94562962       1.00751960
C        5.94831776       1.16563957       0.11076996
H        2.31082921      -1.92926928      -0.08466997
H        4.01802831      -1.48565945       0.00483000
H        2.95193884      -0.68312972      -1.16778956
H        2.74932895      -0.46315982       1.88549927
H        1.59625939       0.22482991       0.74839968
H        3.39029854       1.65374941      -0.24431990
H        3.72069857       3.20004885       1.71662935
H        3.11750877       1.94519920       2.79993879
H        1.62364932       3.20157874       0.60563974
H        1.46025940       3.53314857       2.19359914
H        5.24337791       0.51829979       1.97384927
H        5.73722753       1.58436942      -0.86858967
H        6.98208713       0.92336965       0.33931987
