12
Properties=species:S:1:pos:R:3 atomization_energy=-1116.89 smiles=C.S.O.O.C.C.H.H.H.H.H.H pbc="F F F"
C        1.03361961      -0.04289998       0.08715996
S        2.80248884      -0.05403998      -0.06307998
O        3.32857857      -0.70341975       1.12301956
O        3.12434871      -0.55867976      -1.38425950
C        3.18911887       1.63788938       0.03357998
C        3.10603880       2.41896905      -1.05092959
H        0.60425974       0.50503981      -0.75381970
H        0.75808971       0.42221983       1.03578959
H        0.68623971      -1.07833952       0.06853997
H        3.50989851       2.01543927       0.99517959
H        2.80855893       2.02953916      -2.02186917
H        3.36295870       3.47218861      -0.99484960
