18
Properties=species:S:1:pos:R:3 atomization_energy=-1757.68 smiles=C.C.N.C.C.C.C.H.H.H.H.H.H.H.H.H.H.H pbc="F F F"
C        0.95489964      -0.17779994       0.28624988
C        2.46789911      -0.27887988       0.16782994
N        3.04608868       1.05985954       0.05737998
C        4.50916814       0.99395963      -0.04525998
C        5.11098777       2.39831902      -0.18065992
C        6.58004723       2.34328910      -0.25716990
C        7.77892703       2.30306902      -0.32000987
H        0.51525979      -1.17752955       0.36226987
H        0.52114981       0.31551986      -0.59019978
H        0.66280974       0.38712986       1.17799952
H        2.71595890      -0.87376965      -0.71845970
H        2.86262897      -0.79731971       1.04920958
H        2.78589882       1.61048936       0.87582968
H        4.79361814       0.39452985      -0.91940962
H        4.92484806       0.50060979       0.84271965
H        4.81728832       3.01500879       0.67742975
H        4.71619836       2.88815884      -1.07884961
H        8.84244625       2.26972899      -0.37778985
