16
Properties=species:S:1:pos:R:3 atomization_energy=-1615.78 smiles=C.N.C.C.C.C.C.H.H.H.H.H.H.H.H.H pbc="F F F"
C        1.01430958      -0.13541994       0.20334993
N        2.46443914      -0.12981995       0.06850997
C        2.96115878       1.22164954      -0.17036993
C        4.45254803       1.18619952      -0.28170990
C        5.13613813       1.61537941      -1.35224951
C        6.55492765       1.56423944      -1.39537949
C        7.75313676       1.52357941      -1.43731946
H        0.66864976      -1.15879950       0.37920985
H        0.52468979       0.23343991      -0.70394970
H        0.69322972       0.47169982       1.05591957
H        2.72845889      -0.72036972      -0.71976974
H        2.69600884       1.87563930       0.66873971
H        2.51142903       1.64140940      -1.07830962
H        4.98729802       0.79379969       0.58141979
H        4.62016815       2.01374915      -2.22049916
H        8.81728681       1.48632939      -1.47234948
