22
Properties=species:S:1:pos:R:3 atomization_energy=-2059.67 smiles=C.C.C.N.C.C.C.H.H.H.H.H.H.H.H.H.H.H.H.H.H.H pbc="F F F"
C        2.65130886      -1.54597936      -0.22173991
C        3.96146851      -0.76943969      -0.38630985
C        4.19990843      -0.48296981      -1.87062926
N        3.86385845       0.45037981       0.42237985
C        5.05113783       1.31376950       0.43790983
C        4.69354810       2.57751887       1.22565946
C        6.27070778       0.64102977       1.06929962
H        2.47598910      -1.80631923       0.82843966
H        2.68049904      -2.48151894      -0.79107969
H        1.79153931      -0.96452961      -0.57505978
H        4.76739789      -1.40981939      -0.01162999
H        3.45141872       0.21062992      -2.26947918
H        4.14461836      -1.40670941      -2.45608900
H        5.19174791      -0.05338998      -2.04338924
H        3.61702852       0.20123992       1.38064939
H        5.30105781       1.63309937      -0.57991975
H        4.44882817       2.34806902       2.26911911
H        3.83270841       3.08836880       0.77956972
H        5.53168807       3.28287860       1.22495950
H        6.04738755       0.26852988       2.07519913
H        7.10131718       1.35050944       1.15324960
H        6.62466747      -0.19940992       0.46433982
