13
Properties=species:S:1:pos:R:3 atomization_energy=-1335.4 smiles=O.C.C.C.C.N.H.H.H.H.H.H.H pbc="F F F"
O        1.23215952      -0.14895994       0.55304981
C        2.36245896      -0.04081998       0.11256996
C        3.18223880       1.22281948       0.04188998
C        4.34977805       0.81929966      -0.85492965
C        4.48108821      -0.67328975      -0.62591973
N        3.13697866      -1.08121963      -0.35710985
H        3.52169853       1.48218939       1.04914959
H        2.60454885       2.04336918      -0.38984983
H        4.08761850       1.01328959      -1.90265931
H        5.26905817       1.36770947      -0.63167976
H        4.87168791      -1.20792954      -1.49500946
H        5.09096781      -0.89859968       0.25466989
H        2.80908882      -2.03632914      -0.28000988
