17
Properties=species:S:1:pos:R:3 atomization_energy=-1627.1 smiles=C.N.C.N.C.C.C.H.H.H.H.H.H.H.H.H.H pbc="F F F"
C        1.02923958      -0.25169991      -0.04836998
N        2.49312896      -0.37617985      -0.02453999
C        2.83596891      -1.80699927       0.00646000
N        3.11676869       0.34317988      -0.99879959
C        4.24784834       0.84155969      -0.61196979
C        5.08012817       1.64832933      -1.52685934
C        6.25232747       2.14241904      -1.11539953
H        0.74190973       0.80447967       0.00246000
H        0.57757975      -0.74657968       0.81844968
H        0.60159979      -0.67702974      -0.96333961
H        2.37858899      -2.30136906       0.87058964
H        3.91952853      -1.93710921       0.10410996
H        2.51356905      -2.31819905      -0.90762966
H        4.64342805       0.69147975       0.40986983
H        4.69573834       1.81247927      -2.52670895
H        6.63367721       1.97516922      -0.11303995
H        6.86309730       2.73519891      -1.78924928
