19
Properties=species:S:1:pos:R:3 atomization_energy=-1850.56 smiles=C.C.C.C.C.O.C.H.H.H.H.H.H.H.H.H.H.H.H pbc="F F F"
C        0.97464960      -0.01418000       0.10875996
C        2.48682900       0.01126999       0.02489999
C        3.21522885       1.06692960       0.89313967
C        4.31259805       0.00141000       1.17181954
C        4.80730812      -0.03626998       2.60849909
O        5.46121801       0.04754998       0.29425988
C        3.24796883      -1.07679954       0.82224966
H        0.57454976      -0.87901965      -0.43025984
H        0.54960978       0.88832967      -0.34220985
H        0.62712972      -0.07073997       1.14539958
H        2.81118897       0.05180998      -1.02471957
H        2.65852907       1.38677941       1.78234927
H        3.54628872       1.95817925       0.35205985
H        3.97801842      -0.07007997       3.32300861
H        5.40741796       0.85144969       2.83564896
H        5.43250776      -0.91888963       2.78083882
H        5.10492779       0.06571997      -0.60947978
H        3.60581845      -1.91986931       0.22401991
H        2.70289900      -1.47131946       1.68856936
