19
Properties=species:S:1:pos:R:3 atomization_energy=-1834.45 smiles=C.C.C.C.C.O.C.H.H.H.H.H.H.H.H.H.H.H.H pbc="F F F"
C        1.71441930      -0.22575991       1.23231949
C        2.16528908       0.16153993      -0.16680993
C        3.27845877       1.16262951      -0.12530995
C        3.38245861       2.23294919      -1.17829953
C        2.99804885       2.60074900       0.22782991
O        4.02643851       3.23108863       1.01489959
C        3.75917858       4.60065841       1.27681950
H        0.93960962      -0.99736964       1.18443951
H        1.30132945       0.63845978       1.76445924
H        2.55087900      -0.61337975       1.82420927
H        1.30742943       0.55083977      -0.72631969
H        2.51396900      -0.73211971      -0.69549970
H        4.20237824       0.72877973       0.24358990
H        2.61618889       2.29265909      -1.94181922
H        4.37265844       2.50981890      -1.52260945
H        1.96276928       2.86991882       0.41735984
H        4.61367819       5.02475811       1.81136926
H        2.86861881       4.69560813       1.90543924
H        3.62004868       5.14952784       0.34076986
