12
Properties=species:S:1:pos:R:3 atomization_energy=-1281.48 smiles=N.C.N.C.C.C.N.H.H.H.H.H pbc="F F F"
N        0.89375965       0.02283999       0.27359988
C        2.17881909      -0.00288000       0.28767990
N        2.94382892       1.10876953       0.15200995
C        4.30922842       1.22252954       0.14227994
C        5.02257797       2.34739908       0.00000000
C        6.42857732       2.34739908       0.00000000
N        7.57958685       2.34739908       0.00000000
H        0.53145978      -0.93034963       0.39208985
H        2.74376884      -0.94306965       0.41209984
H        2.40397906       1.96152920       0.03823999
H        4.81663832       0.26546989       0.26589990
H        4.52917801       3.30408881      -0.12398995
