17
Properties=species:S:1:pos:R:3 atomization_energy=-1741.42 smiles=C.C.C.C.C.C.C.H.H.H.H.H.H.H.H.H.H pbc="F F F"
C        1.91694920      -0.00027000      -0.52666981
C        0.92832966       0.77993970       0.28602987
C        0.92912961      -0.77985971       0.28591989
C       -0.57038976      -1.01459957      -0.03912999
C       -1.02958963       0.00009000      -1.18481952
C       -0.56994975       1.01480958      -0.03893998
C       -1.41978938      -0.00007000       0.86086965
H        1.82109928       0.00013000      -1.60605931
H        2.95109883      -0.00033000      -0.19828993
H        1.21945956       1.27903951       1.20074958
H        1.21926956      -1.27933953       1.20044956
H       -0.91156963      -2.04771925      -0.10372996
H       -2.09238919       0.00014000      -1.45228939
H       -0.43828983       0.00020000      -2.10380920
H       -0.91135963       2.04789916      -0.10337996
H       -1.18887953      -0.00009000       1.92995928
H       -2.50676898      -0.00002000       0.72586972
