17
Properties=species:S:1:pos:R:3 atomization_energy=-1720.52 smiles=C.C.C.C.C.C.O.H.H.H.H.H.H.H.H.H.H pbc="F F F"
C        0.67445975      -0.25675989      -0.20119992
C        2.13489906       0.01411000      -0.01703999
C        2.74983892       1.21187953       0.05600998
C        2.04103916       2.54160911       0.02038999
C        4.25059824       1.29507945       0.23162991
C        4.88171808       1.89347924      -1.00343959
O        5.46061797       2.97647882      -1.01291961
H        0.54007979      -1.00462959      -0.98961960
H        0.10076996       0.62508975      -0.49348979
H        0.25075989      -0.65894977       0.72396973
H        2.73916884      -0.89029968       0.05580998
H        0.96167965       2.45685911       0.16647993
H        2.21604905       3.04021870      -0.93822963
H        2.41316897       3.19107873       0.82013967
H        4.70470821       0.31025989       0.38739986
H        4.49965828       1.91040928       1.10288958
H        4.80388802       1.28674949      -1.92210925
