15
Properties=species:S:1:pos:R:3 atomization_energy=-1527.34 smiles=C.C.C.C.O.C.O.H.H.H.H.H.H.H.H pbc="F F F"
C        0.95570962      -0.26468991      -0.07876997
C        2.42754907      -0.02903999      -0.20973992
C        3.09442879       1.10961951       0.05907998
C        2.53967903       2.40914908       0.56022977
O        2.79796883       3.44662872      -0.37889986
C        4.56912810       1.08843958      -0.14755994
O        5.26360781       2.08428924       0.02681999
H        0.77933972      -1.12198955       0.57905980
H        0.53106980      -0.49714979      -1.06064959
H        0.40876985       0.58589974       0.33216987
H        2.97348894      -0.89931964      -0.57263980
H        2.99361892       2.68225906       1.51935942
H        1.45965948       2.37717896       0.71512974
H        3.77257863       3.53350865      -0.41581983
H        5.00451811       0.13075995      -0.47902982
