15
Properties=species:S:1:pos:R:3 atomization_energy=-1573.22 smiles=C.C.C.C.C.C.O.H.H.H.H.H.H.H.H pbc="F F F"
C        0.99999962       0.00000000       0.00000000
C        2.44399905       0.00000000       0.00000000
C        3.63415853       0.00000000       0.00000000
C        5.07815797       0.00000000       0.00000000
C        5.66627753       1.38679947      -0.16200993
C        5.27321810       2.17491905      -1.38627941
O        6.48409726       1.83771933       0.64399977
H        0.60611974       1.02094961       0.00993000
H        0.60587977      -0.51901979       0.87910967
H        0.60595976      -0.50170980      -0.88913965
H        5.47327793      -0.62478973      -0.80834968
H        5.45391807      -0.41923984       0.94026966
H        5.45673762       1.57699932      -2.28267914
H        5.87891758       3.08382886      -1.44526942
H        4.22040832       2.46011898      -1.32860948
