13
Properties=species:S:1:pos:R:3 atomization_energy=-1258.28 smiles=C.C.C.C.O.H.H.H.H.H.H.H.H pbc="F F F"
C        0.95820966       0.01100999       0.04600998
C        2.45982906      -0.04211999       0.02685999
C        3.12787883      -1.20376947       0.13797995
C        3.16593871       1.27322946      -0.14479995
O        2.91370889       2.08968913       0.98799963
H        0.60542974       0.60904975       0.89226963
H        0.51313980      -0.98565964       0.13559994
H        0.58253976       0.46015983      -0.87911964
H        2.60632905      -2.14937909       0.25315990
H        4.21285832      -1.24192953       0.11493995
H        2.80570884       1.79195931      -1.03885958
H        4.24972820       1.15144960      -0.24346990
H        3.10179888       1.54304941       1.76990934
