10
Properties=species:S:1:pos:R:3 atomization_energy=-1120.81 smiles=N.C.C.C.N.N.C.H.H.H pbc="F F F"
N        0.99999962       0.00000000       0.00000000
C        2.15100915       0.00000000       0.00000000
C        3.59500859       0.00000000       0.00000000
C        4.15127839       1.11225953      -0.80815968
N        4.87059785       0.71250973      -1.80619925
N        4.87059785      -0.71600975      -1.80478935
C        4.15117847      -1.11346958      -0.80585968
H        4.02096847       0.00097000       1.00514958
H        3.97806838       2.16602917      -0.55115979
H        3.97808831      -2.16667918      -0.54708981
