15
Properties=species:S:1:pos:R:3 atomization_energy=-1531.79 smiles=C.C.C.C.O.C.O.H.H.H.H.H.H.H.H pbc="F F F"
C        0.65149975       0.33241987       0.05729998
C        2.12559914       0.09691996       0.09771996
C        3.04258885       1.03930961      -0.16810993
C        4.49863835       0.72652969      -0.10596996
O        4.91827785      -0.38525984       0.21529991
C        5.45701771       1.85805925      -0.46060983
O        6.81526740       1.44925940      -0.37361986
H        0.19090992      -0.31693989      -0.69297973
H        0.40571983       1.36967942      -0.18992993
H        0.21086992       0.10033996       1.03136957
H        2.44438916      -0.91095962       0.36272987
H        2.76422886       2.05126917      -0.43730981
H        5.30631791       2.68998897       0.23288991
H        5.26509808       2.18636909      -1.48587935
H        6.79980757       0.51592980      -0.07534997
