17
Properties=species:S:1:pos:R:3 atomization_energy=-1715.72 smiles=C.C.C.C.O.C.C.H.H.H.H.H.H.H.H.H.H pbc="F F F"
C        0.99794962       0.02905999       0.28224989
C        2.51324909       0.00980999       0.06274997
C        2.95905888      -1.29858950      -0.62599979
C        2.85424880      -0.99463960      -2.08938923
O        3.96771850      -0.30591989      -2.66484896
C        2.84786886       0.48697980      -2.26473914
C        2.94836886       1.12487950      -0.91256962
H        0.68860973       0.97303960       0.74219971
H        0.69617973      -0.78450968       0.94958964
H        0.44778983      -0.08414996      -0.65715973
H        3.00229886       0.12694995       1.03612961
H        2.33581909      -2.15165916      -0.34047987
H        3.99784837      -1.53088944      -0.36619987
H        2.22676909      -1.63105940      -2.69025897
H        2.21474904       0.96016964      -2.99651871
H        3.98508848       1.42040948      -0.71536971
H        2.31763913       2.01590923      -0.83326966
