16
Properties=species:S:1:pos:R:3 atomization_energy=-1617.85 smiles=N.C.C.C.C.C.C.H.H.H.H.H.H.H.H.H pbc="F F F"
N        1.25164946      -0.16826994       0.34356986
C        2.31720915       0.29710990      -0.55287980
C        2.25390909      -0.45939981      -1.89825928
C        3.40914870      -0.15998994      -2.76569894
C        4.34385836       0.08825996      -3.47773864
C        2.13833910       1.78235924      -0.72499974
C        3.05580874       2.70181902      -0.39437984
H        1.34262951       0.32375987       1.23236946
H        1.40017946      -1.15355959       0.55523979
H        3.28038860       0.08784996      -0.06922997
H        1.32382944      -0.22158992      -2.43025911
H        2.23859914      -1.54047942      -1.70802927
H        5.16921776       0.31662987      -4.11205829
H        1.19399959       2.11381919      -1.15337955
H        4.01564832       2.42442900       0.02951999
H        2.86153890       3.75831864      -0.55091976
