14
Properties=species:S:1:pos:R:3 atomization_energy=-1383.11 smiles=C.C.N.C.N.C.H.H.H.H.H.H.H.H pbc="F F F"
C        0.39111985       1.34914950       0.32566989
C        1.39469945       0.35254985      -0.22768991
N        0.96356961      -0.97226961       0.14653994
C       -0.36876986      -1.25387956       0.19461993
N       -1.34865947      -0.43417983       0.09302996
C       -1.00837960       0.97533960      -0.14793994
H        0.64235974       2.36547911       0.00450000
H        0.42109983       1.33444944       1.42254938
H        2.39132894       0.54836976       0.17988993
H        1.45600939       0.42657984      -1.31901950
H        1.60483941      -1.73568931      -0.03373999
H       -0.56902976      -2.32750907       0.35393985
H       -1.11620952       1.18434956      -1.21876956
H       -1.73964928       1.60176942       0.37500986
