17
Properties=species:S:1:pos:R:3 atomization_energy=-1771.02 smiles=C.C.C.C.C.C.C.H.H.H.H.H.H.H.H.H.H pbc="F F F"
C        1.06490957       0.06203998      -0.00513000
C        2.56264899      -0.13880995       0.04403998
C        3.05744889      -1.51233944       0.03354999
C        2.31186907      -2.62573887      -0.01619000
C        3.35907861       0.95041962       0.09706996
C        4.80406818       1.00411962       0.14669993
C        5.48376785       2.15548904       0.21980992
H        0.78605968       1.12148955       0.00419000
H        0.58327979      -0.40284985       0.86170967
H        0.64598972      -0.37007984      -0.92019961
H        4.13431845      -1.65772930       0.07160997
H        1.22910946      -2.61371907      -0.05583997
H        2.78992881      -3.60051849      -0.01747999
H        2.87637875       1.92921919       0.10398996
H        5.36959805       0.07879997       0.12220995
H        4.98937824       3.12130888       0.24891990
H        6.56882757       2.15175908       0.25418990
