17
Properties=species:S:1:pos:R:3 atomization_energy=-1678.31 smiles=N.C.N.C.C.C.C.H.H.H.H.H.H.H.H.H.H pbc="F F F"
N        2.63557903      -1.02142961      -0.41197983
C        2.33356905       0.10501996       0.12879995
N        2.96909888       1.28440950      -0.08880997
C        2.59105897       2.55178891       0.50949980
C        3.36471871       3.58627868      -0.30242989
C        4.62225796       2.83303884      -0.70390971
C        4.10165846       1.42731945      -0.99199959
H        1.99340924      -1.74396932      -0.07053998
H        1.49214941       0.18129993       0.84052968
H        2.89904895       2.57194891       1.56072938
H        1.51233944       2.73059891       0.45207983
H        2.79466884       3.86540852      -1.19695956
H        3.57497853       4.49508806       0.26792990
H        5.12933781       3.27674872      -1.56476934
H        5.32688795       2.80823897       0.13582995
H        3.76234862       1.34501947      -2.03081923
H        4.87780796       0.67693972      -0.80877965
