19
Properties=species:S:1:pos:R:3 atomization_energy=-1846.98 smiles=C.C.C.C.O.C.C.H.H.H.H.H.H.H.H.H.H.H.H pbc="F F F"
C        0.92883962      -0.21816991       0.11302996
C        2.45495906      -0.04360998      -0.01937999
C        3.12214889      -0.68396973       1.21262959
C        2.90513897      -0.77920971      -1.30792955
O        4.32217806      -0.79900970      -1.46560946
C        2.89221885       1.42030944      -0.07683997
C        2.11259916       2.51002909      -0.11758996
H        0.39963985       0.19332992      -0.75471970
H        0.54246981       0.27630989       1.01240959
H        0.65909972      -1.27867943       0.18445992
H        2.78667903      -0.20338992       2.14002921
H        4.21514823      -0.59987978       1.17752955
H        2.87618875      -1.74998931       1.28488943
H        2.46826903      -0.32076987      -2.20385918
H        2.57535892      -1.82364934      -1.28371950
H        4.59222802       0.10089996      -1.71697933
H        3.96938843       1.58610937      -0.06460997
H        1.02940958       2.46073896      -0.11970996
H        2.55609898       3.50184864      -0.14321994
