5
Properties=species:S:1:pos:R:3 atomization_energy=-596.35 smiles=C.C.C.N.H pbc="F F F"
C        0.93952963       0.00000000       0.00000000
C        2.14022906       0.00000000       0.00000000
C        3.67636851       0.00000000       0.00000000
N        4.83632823       0.00000000       0.00000000
H       -0.12599995       0.00000000       0.00000000
