15
Properties=species:S:1:pos:R:3 atomization_energy=-1559.65 smiles=C.C.C.C.O.C.C.H.H.H.H.H.H.H.H pbc="F F F"
C        0.99999962      -0.02328999       0.16672993
C        2.51999896       0.00000000       0.00000000
C        2.91632885      -0.72677969      -1.28852944
C        4.40970824      -0.91110963      -1.36874945
O        4.94920812      -2.01458916      -1.39289945
C        3.00201878       1.36116943       0.00000000
C        3.39929870       2.48306901       0.00000000
H        0.69805972       0.47708981       1.09390962
H        0.62782975      -1.05270960       0.20608991
H        0.49727980       0.48663982      -0.66349974
H        2.96106894      -0.53148981       0.85334968
H        2.59747903      -0.17692993      -2.18168910
H        2.45377916      -1.72027932      -1.32437953
H        5.01254780       0.01031999      -1.43385950
H        3.75052841       3.48983868       0.00644000
