15
Properties=species:S:1:pos:R:3 atomization_energy=-1589.08 smiles=C.C.C.O.C.C.C.H.H.H.H.H.H.H.H pbc="F F F"
C        0.98236961      -0.01359999       0.10005996
C        2.47110902       0.01860999      -0.05112998
C        3.15962866       1.16066953      -0.20443992
O        4.52900844       1.22963949      -0.35166985
C        5.23558794       0.04733998      -0.34839985
C        4.67232805      -1.15787950      -0.20296992
C        3.18937877      -1.30794948      -0.02745999
H        0.54642977       0.99073963       0.07274997
H        0.70625973      -0.47250980       1.05479960
H        0.53081980      -0.59609979      -0.70949973
H        2.72443900       2.15094910      -0.23184991
H        6.29418771       0.22288991      -0.47847980
H        5.28419804      -2.05326914      -0.20929991
H        2.80252896      -1.94694925      -0.82941965
H        2.99607890      -1.81061933       0.92721965
