15
Properties=species:S:1:pos:R:3 atomization_energy=-1602.05 smiles=C.C.C.C.C.C.O.H.H.H.H.H.H.H.H pbc="F F F"
C        1.04028961      -0.02479999       0.15683993
C        2.36595905       0.04140998       0.00200000
C        3.25418879       1.24149956       0.00474000
C        4.43365801       0.79811966      -0.85859968
C        4.62786829      -0.69338970      -0.58371979
C        3.22602862      -1.14183956      -0.28554988
O        2.84776893      -2.30127898      -0.24233990
H        0.52034979      -0.97735964       0.10615995
H        0.44775983       0.86485964       0.33934986
H        3.58880855       1.45701947       1.02636963
H        2.77049879       2.13264928      -0.40706984
H        4.19231830       0.94832962      -1.91901920
H        5.33951814       1.37322947      -0.64394974
H        5.03297805      -1.21103952      -1.45650938
H        5.25625791      -0.86344968       0.29564988
