17
Properties=species:S:1:pos:R:3 atomization_energy=-1632.05 smiles=N.N.C.C.C.C.C.H.H.H.H.H.H.H.H.H.H pbc="F F F"
N        0.85696969       1.73119933      -0.69149974
N        2.18950910       1.86780921      -0.87310967
C        2.88315889       1.17198949      -0.02959999
C        4.42876834       1.17949950      -0.05461998
C        5.17170776       2.22776908      -0.92734960
C        6.23774777       2.30003902       0.18211993
C        5.14832775       1.82404929       1.16102948
H        0.38060984       2.52007894      -1.13823955
H        0.51487979       0.91666962      -1.20876955
H        2.41018893       0.54324977       0.74737970
H        4.80307804       0.16280993      -0.24860991
H        4.63130808       3.16990864      -1.07440958
H        5.52823770       1.86879923      -1.89644931
H        7.05819730       1.58462932       0.05348998
H        6.65465755       3.29093882       0.37825985
H        5.48421800       1.13034953       1.93610922
H        4.59006806       2.64134884       1.63252936
