17
Properties=species:S:1:pos:R:3 atomization_energy=-1705.55 smiles=C.C.C.C.O.C.C.H.H.H.H.H.H.H.H.H.H pbc="F F F"
C        1.75313929       0.34117987      -2.63927897
C        2.95690876       0.36699985      -1.75465933
C        3.25925863       1.38196947      -0.92589965
C        4.44322843       1.47640936       0.00207000
O        5.27275785       0.32973986      -0.12244995
C        5.32747790       2.67600906      -0.21137991
C        5.24035801       3.62423863      -1.15624957
H        1.11400957      -0.50668981      -2.37481916
H        2.06186923       0.22720991      -3.68318852
H        1.15888959       1.25675954      -2.55821907
H        3.59727855      -0.51110980      -1.79837925
H        2.57943886       2.23119902      -0.87734966
H        4.06826847       1.50061941       1.03136957
H        5.66274792       0.38111984      -1.01128962
H        6.13934766       2.75844896       0.51103981
H        4.46836820       3.61917864      -1.91883929
H        5.95858765       4.43839830      -1.18674948
