17
Properties=species:S:1:pos:R:3 atomization_energy=-1661.7 smiles=C.C.C.O.C.C.O.H.H.H.H.H.H.H.H.H.H pbc="F F F"
C        0.99211963       0.00848999      -0.03847998
C        2.50982899      -0.01668999       0.03576998
C        3.08516874       1.07386960       0.91564964
O        4.40530809       0.62550976       1.23957957
C        4.34993854      -0.80462968       1.36557942
C        3.06916892      -1.27513948       0.67974975
O        3.31836874      -2.27799915      -0.29940987
H        0.62145977      -0.81320971      -0.65833976
H        0.64318972       0.94949962      -0.47454980
H        0.54222978      -0.08878997       0.95478962
H        2.91197891       0.08640996      -0.98122964
H        2.52412911       1.20092949       1.84823928
H        3.14221881       2.03858914       0.40415983
H        5.25966791      -1.23663953       0.93642962
H        4.32471853      -1.04368958       2.43486895
H        2.38358918      -1.70229933       1.41988943
H        3.96770841      -1.92219921      -0.93239963
