17
Properties=species:S:1:pos:R:3 atomization_energy=-1721.19 smiles=C.C.C.C.C.C.O.H.H.H.H.H.H.H.H.H.H pbc="F F F"
C        0.82813971       0.16875993       0.15425994
C        2.27235904      -0.25085990       0.04179998
C        2.47994894      -1.74048929       0.05406998
C        3.24514877       0.67567971      -0.06295998
C        4.72343825       0.46084983      -0.19915992
C        5.40609776       1.02968961       1.02050961
O        5.95402751       2.12814920       1.04314959
H        0.70920974       1.25743945       0.15056994
H        0.39505985      -0.20861991       1.08641954
H        0.25118990      -0.23173991      -0.68566975
H        2.00060925      -2.19310911      -0.82043969
H        2.03304921      -2.17491905       0.95478962
H        3.53133860      -2.03417915       0.04441999
H        2.95566880       1.72869936      -0.06728997
H        5.09007809       0.98743958      -1.08667957
H        5.01842813      -0.58549980      -0.29712990
H        5.35624770       0.40453984       1.92902919
