17
Properties=species:S:1:pos:R:3 atomization_energy=-1632.12 smiles=N.C.C.C.N.C.C.H.H.H.H.H.H.H.H.H.H pbc="F F F"
N        1.00713959      -0.13801995      -0.16572994
C        2.46408891      -0.02596999      -0.05739998
C        2.97738872       1.43281939       0.00000000
C        2.41751916       2.17056912       1.24047951
N        2.79980883       3.59099854       1.29512954
C        4.42138815       1.43281939       0.00000000
C        5.61154789       1.43281939       0.00000000
H        0.75228969      -1.12099952      -0.26369990
H        0.69288971       0.32176988      -1.02108959
H        2.91066880      -0.54058982      -0.91761965
H        2.78684885      -0.57248979       0.83778967
H        2.62247900       1.95446922      -0.89941963
H        2.76510900       1.68212936       2.15929924
H        1.32322953       2.12777929       1.24347948
H        3.81764853       3.66012847       1.31346948
H        2.47211910       3.98685833       2.17581912
H        6.67745719       1.43535948      -0.00397000
