19
Properties=species:S:1:pos:R:3 atomization_energy=-1905.12 smiles=C.C.C.C.C.C.C.H.H.H.H.H.H.H.H.H.H.H.H pbc="F F F"
C        0.22714990       0.81964970       0.32099986
C        1.63552933       0.88725966      -0.17397992
C        2.65415894       1.40266946       0.53116979
C        4.07368829       1.46228941       0.03673999
C        4.57901797       2.90610893      -0.04975998
C        5.99786755       2.96523872      -0.54416976
C        7.01928731       3.47054872       0.15975994
H       -0.43252984       1.37020944      -0.35642986
H        0.11969995       1.24569949       1.32342950
H       -0.10592995      -0.22210991       0.35510985
H        1.81377928       0.48499982      -1.16904958
H        2.47331894       1.79714926       1.52946945
H        4.16035828       0.97845961      -0.94460963
H        4.70303828       0.88780967       0.72787972
H        4.49386829       3.38966873       0.93177966
H        3.94930841       3.48128869      -0.73995971
H        6.18652755       2.57911891      -1.54404940
H        6.88094721       3.87384850       1.15797956
H        8.02240701       3.49130851      -0.25464990
