19
Properties=species:S:1:pos:R:3 atomization_energy=-1796.31 smiles=C.C.C.C.O.C.O.H.H.H.H.H.H.H.H.H.H.H.H pbc="F F F"
C        0.91968965      -0.29034988       0.34786986
C        2.41994911      -0.21397992       0.03688999
C        2.82268897      -1.41010945      -0.82718968
C        2.77287903       1.13340956      -0.62132976
O        2.39948908       2.19852918       0.26384990
C        4.26374824       1.29668945      -0.94813962
O        4.47822829       2.61124900      -1.47435942
H        0.61540976       0.50256981       1.03877959
H        0.66803975      -1.24735945       0.81753971
H        0.32168986      -0.19427993      -0.56491978
H        2.94863886      -0.28530988       0.99677962
H        2.38019911      -1.34347949      -1.82654926
H        2.48994908      -2.34922898      -0.37212984
H        3.90932855      -1.47433936      -0.93637966
H        2.18713920       1.27576955      -1.53719937
H        2.93439879       2.97187882      -0.00632000
H        4.61646797       0.56986977      -1.68481933
H        4.87161827       1.21281946      -0.04172998
H        4.07308850       2.63714904      -2.35949912
