11
Properties=species:S:1:pos:R:3 atomization_energy=-1200.23 smiles=C.O.C.C.O.C.C.H.H.H.H pbc="F F F"
C        2.31129905       0.09874996       0.49266981
O        1.26088945       0.78851966      -0.25040990
C        2.14568925       1.71871928      -0.65329976
C        2.20090917       3.07638887      -0.60471974
O        3.34507876       3.40977877       0.09776996
C        3.89650835       2.23398904       0.57062979
C        3.18964876       1.18836957       0.05904998
H        2.51850894      -0.88413964       0.05915998
H        2.11733908       0.01759999       1.56538944
H        1.52655944       3.89375845      -0.81234970
H        4.66290802       2.35668916       1.32270947
