19
Properties=species:S:1:pos:R:3 atomization_energy=-1847.74 smiles=C.C.C.C.C.C.O.H.H.H.H.H.H.H.H.H.H.H.H pbc="F F F"
C        0.88485967       0.02843999      -0.23740990
C        2.37136903       0.03004999       0.01896999
C        2.73524887      -0.03186999       1.47949941
C        3.26313873      -0.69390976      -0.97021961
C        3.24114882       0.81437970      -0.95437964
C        4.44455822       1.58769943      -0.53051978
O        5.27666798       1.79236935      -1.66366931
H        0.65242972       0.07152997      -1.30695946
H        0.41644984       0.89282968       0.24363991
H        0.42942982      -0.88142967       0.16707993
H        3.80202846      -0.21524992       1.64001931
H        2.19009905      -0.84334967       1.97389923
H        2.47161898       0.90833966       1.97488925
H        2.80156884      -1.19633958      -1.81421935
H        4.14221843      -1.20708953      -0.59478975
H        2.73759883       1.31855951      -1.77480924
H        5.03623817       1.07911960       0.23493991
H        4.14790826       2.56696890      -0.14349995
H        5.47682773       0.91130966      -2.02299924
