13
Properties=species:S:1:pos:R:3 atomization_energy=-1270.06 smiles=C.C.C.C.O.H.H.H.H.H.H.H.H pbc="F F F"
C        0.97226961      -0.00851000      -0.03978999
C        2.49436891       0.00282000       0.00152000
C        3.08913866      -0.75235971      -1.17885958
C        2.98259886       1.43350939      -0.02402999
O        3.64164848       1.93664921       0.88108965
H        0.55657980       0.54860979       0.80702967
H        0.58864977      -1.03266958       0.00636000
H        0.59305977       0.45760983      -0.95618962
H        2.83549882      -0.45736983       0.93666965
H        2.78024887      -0.31134987      -2.13311912
H        2.77459892      -1.80061932      -1.16937950
H        4.18372844      -0.72554970      -1.14484949
H        2.71166902       2.02147919      -0.91856961
