13
Properties=species:S:1:pos:R:3 atomization_energy=-1447.61 smiles=C.C.O.C.C.C.C.H.H.H.H.H.H pbc="F F F"
C        0.88567962       0.14392994       0.00232000
C        2.21352902       0.02384999      -0.00195000
O        3.07580876       1.12321953      -0.00777000
C        4.37475835       0.61815973      -0.01117000
C        4.43582806      -0.71731973      -0.00801999
C        3.05671889      -1.16002949      -0.00191000
C        2.67660885      -2.44207906       0.00284000
H        0.42698984       1.12649959       0.00142000
H        0.23111991      -0.71867973       0.00672000
H        5.15988806       1.35195946      -0.01584999
H        5.31618809      -1.33621941      -0.00964000
H        1.63030935      -2.72713894       0.00742000
H        3.40517877      -3.24611873       0.00234000
