17
Properties=species:S:1:pos:R:3 atomization_energy=-1703.61 smiles=C.C.C.C.O.C.C.H.H.H.H.H.H.H.H.H.H pbc="F F F"
C        2.37781912      -1.74384933       0.57526978
C        3.36337858      -0.91263964      -0.23184991
C        3.00580879       0.54279980      -0.19360993
C        3.80723860       1.49026941       0.30436988
O        3.42718861       2.80765886       0.35655987
C        4.31328843       3.73286850       0.84409966
C        3.93339843       4.97458810       1.15564953
H        2.66737883      -2.79901879       0.55483978
H        1.36506946      -1.66349936       0.16650992
H        2.34986915      -1.42040948       1.62117938
H        3.36274876      -1.25290947      -1.27367949
H        4.37505811      -1.07660954       0.15866993
H        2.03463915       0.82966965      -0.59181975
H        4.78271793       1.27505949       0.71833971
H        5.33303777       3.39324855       0.95095961
H        2.90202898       5.28753790       1.03851956
H        4.64714842       5.69429790       1.54185942
