17
Properties=species:S:1:pos:R:3 atomization_energy=-1608.8 smiles=C.C.C.N.C.C.H.H.H.H.H.H.H.H.H.H.H pbc="F F F"
C        0.94393962      -0.02130999       0.05918998
C        2.45693910      -0.00105000      -0.01211999
C        3.18570887       1.02998957       0.87645962
N        4.14537838      -0.01678999       1.29061950
C        5.34514765       0.02281999       0.45377982
C        3.21313879      -1.06290959       0.81628966
H        0.54590978      -0.88910962      -0.47615980
H        0.52595981       0.87902968      -0.40205983
H        0.58704974      -0.06853997       1.09312954
H        2.79569886       0.03405999      -1.05726961
H        2.58689904       1.40620942       1.71525932
H        3.60170848       1.89566923       0.34939987
H        5.97393746      -0.84881964       0.66625974
H        5.93709760       0.91296963       0.69389973
H        5.13899806       0.03530999      -0.62304978
H        3.65136853      -1.88564928       0.24066991
H        2.62501897      -1.50225943       1.63164935
