13
Properties=species:S:1:pos:R:3 atomization_energy=-1341.96 smiles=N.C.C.C.N.C.C.H.H.H.H.H.H pbc="F F F"
N        1.76251932      -0.69847973       0.12401995
C        2.34264919       0.38185986      -0.27227990
C        2.15211916       0.56233976      -1.69218930
C        1.99025926       0.70739970      -2.87464877
N        3.04766878       1.25132950       0.52974979
C        4.23542809       1.92131920      -0.01650999
C        2.98401873       2.69178885       0.24849991
H        1.93377919      -0.76820971       1.13213957
H        1.83543927       0.81731968      -3.92206850
H        4.50423809       1.66755937      -1.03195958
H        5.04506825       1.98337919       0.69745974
H        2.92239893       3.29017880       1.14696958
H        2.35376918       2.99157882      -0.57654980
