15
Properties=species:S:1:pos:R:3 atomization_energy=-1585.36 smiles=C.C.C.C.O.C.C.H.H.H.H.H.H.H.H pbc="F F F"
C        0.96980964      -0.07404998      -0.13798995
C        2.42767902       0.07380997       0.15413994
C        3.13182883       1.21252953       0.09357996
C        4.60060794       1.37898944       0.38055985
O        4.89590818       2.79517881       0.27326989
C        3.68998859       3.35790880      -0.09225996
C        2.66333900       2.52844902      -0.21491992
H        0.77115971      -1.08152962      -0.51511978
H        0.62614973       0.63046977      -0.89977964
H        0.38432984       0.06821997       0.77425972
H        2.94511883      -0.84055964       0.43999982
H        5.21612815       0.84785965      -0.35283987
H        4.85886797       1.04946961       1.39190943
H        3.71259848       4.42427835      -0.23190992
H        1.65422934       2.80177878      -0.47923983
