17
Properties=species:S:1:pos:R:3 atomization_energy=-1715.55 smiles=C.C.C.C.C.C.O.H.H.H.H.H.H.H.H.H.H pbc="F F F"
C        0.80642969      -1.16502956       0.56248977
C       -0.39750986      -1.49055947      -0.32621987
C       -1.54893933      -0.52766979      -0.19550991
C       -1.46088948       0.76366970       0.16346994
C       -0.18562993       1.53519939       0.38345986
C        1.00539958       1.03160960      -0.43714983
O        1.65490938      -0.12664995       0.08024997
H        1.43654948      -2.05829924       0.63685974
H        0.49652982      -0.92444962       1.58636939
H       -0.77203971      -2.47782910      -0.02741999
H       -0.10257996      -1.55666937      -1.37993946
H       -2.53707901      -0.94623963      -0.37828985
H       -2.38230911       1.33268943       0.27452988
H        0.04860998       1.54566937       1.45403944
H       -0.38277986       2.57122901       0.08016997
H        1.76818933       1.81779930      -0.46382983
H        0.72368970       0.84433969      -1.48026940
