19
Properties=species:S:1:pos:R:3 atomization_energy=-1842.53 smiles=C.C.C.C.C.O.C.H.H.H.H.H.H.H.H.H.H.H.H pbc="F F F"
C        1.86856923      -0.64633977      -1.29495947
C        2.36697897      -0.08741997       0.02932999
C        3.15838871       1.21122952      -0.14737994
C        4.46147804       1.04198956      -0.92597963
C        2.33855915       2.45314908      -0.55687975
O        2.83363888       3.20204883       0.57994977
C        3.36010862       1.98890916       1.17154955
H        1.24850945      -1.53156935      -1.12003953
H        2.69867900      -0.94601966      -1.94174920
H        1.26571945       0.08890996      -1.83731926
H        2.98773885      -0.83974965       0.52960981
H        1.49865943       0.08340996       0.67784975
H        5.04202816       1.97128924      -0.94660961
H        4.27032853       0.75939969      -1.96599925
H        5.09006800       0.26881991      -0.47174981
H        1.24860950       2.35298897      -0.51103981
H        2.61865896       2.92316879      -1.50430938
H        4.39452850       2.11822905       1.50509943
H        2.74721896       1.67512931       2.02354919
