15
Properties=species:S:1:pos:R:3 atomization_energy=-1572.44 smiles=C.C.C.C.O.C.C.H.H.H.H.H.H.H.H pbc="F F F"
C        0.85457967       0.00256000      -0.00529000
C        2.33765909       0.02591999      -0.01708999
C        3.14663865       1.10124956       0.00440000
C        4.57530820       0.75275972      -0.04384998
O        5.13202816      -0.03986998      -1.10517962
C        4.60590841      -0.76189972       0.00879000
C        3.17300878      -1.23836952      -0.07014997
H        0.48101980      -1.02580958       0.01049000
H        0.45431981       0.49061980      -0.89860964
H        0.46698980       0.51169981       0.88183965
H        2.80605882       2.12790924       0.02980999
H        5.24686816       1.30848947       0.59737974
H        5.26146804      -1.27965949       0.68825975
H        2.94251881      -1.88174925       0.78492968
H        2.99584877      -1.79047926      -0.99803964
