17
Properties=species:S:1:pos:R:3 atomization_energy=-1698.97 smiles=C.C.O.C.C.C.C.H.H.H.H.H.H.H.H.H.H pbc="F F F"
C        0.96347959      -0.21893991      -0.09690996
C        2.43992895      -0.05440998      -0.06719998
O        3.10378876      -0.39329984      -1.29046948
C        3.11758876       0.99318958      -0.91378964
C        4.46640808       1.52956938      -0.54532979
C        4.43917801       2.46407907       0.63276977
C        5.10810817       2.25234917       1.77295927
H        0.49176981       0.48130982       0.60004979
H        0.69101974      -1.23581945       0.20429993
H        0.54874977      -0.03752998      -1.09475959
H        2.88977881      -0.35327985       0.86897964
H        2.51609892       1.68575940      -1.48679935
H        4.86976818       2.07549915      -1.40675950
H        5.16290796       0.70187970      -0.35680986
H        3.83517848       3.36288856       0.53332981
H        5.72644794       1.37126949       1.91730928
H        5.05122817       2.96253878       2.59280889
