19
Properties=species:S:1:pos:R:3 atomization_energy=-1869.11 smiles=C.C.C.C.C.C.O.H.H.H.H.H.H.H.H.H.H.H.H pbc="F F F"
C        0.84725966      -0.76383970       0.51177980
C        2.30258908      -0.84931970       0.08056997
C        2.98051889       0.51906981       0.12822995
C        4.44258802       0.43151982      -0.30404989
C        5.14159808       1.78083933      -0.26692988
C        6.59024747       1.78847929      -0.67774971
O        4.57784817       2.81363886       0.09162997
H        0.38124985      -1.75374930       0.47336981
H        0.28135989      -0.09639996      -0.14634994
H        0.76276970      -0.38837985       1.53686945
H        2.35307905      -1.25514954      -0.93623961
H        2.83135882      -1.55011936       0.73678973
H        2.92023897       0.92596960       1.14553949
H        2.44434903       1.22011953      -0.52360978
H        4.50607809       0.04817998      -1.32815945
H        4.98860813      -0.24846990       0.35874985
H        7.17864712       1.22161951       0.04724998
H        6.95803744       2.81792899      -0.71051971
H        6.69277723       1.34941949      -1.67345938
