17
Properties=species:S:1:pos:R:3 atomization_energy=-1722.12 smiles=C.C.C.C.C.C.O.H.H.H.H.H.H.H.H.H.H pbc="F F F"
C        1.39276950      -0.18860992       0.68363975
C        2.42346913       0.14857995      -0.40064983
C        2.76842892      -1.11062959      -1.20030951
C        2.00020918       1.26588952      -1.33384952
C        0.73951970       1.60560940      -1.65284934
C        3.08494870       2.09062918      -1.94152929
O        4.27430830       1.88804920      -1.72969935
H        1.11377957       0.70496975       1.25268956
H        1.80819923      -0.91443964       1.39177947
H        0.48202982      -0.62752973       0.26195990
H        3.32702875       0.46932983       0.13439996
H        1.89613919      -1.48920937      -1.74549933
H        3.12031873      -1.90746924      -0.53595979
H        3.56157848      -0.91486961      -1.93002930
H       -0.11242995       1.06089964      -1.25809955
H        0.50739981       2.42687913      -2.32405919
H        2.75478890       2.90792874      -2.60519886
