19
Properties=species:S:1:pos:R:3 atomization_energy=-1844.66 smiles=C.C.C.C.C.O.C.H.H.H.H.H.H.H.H.H.H.H.H pbc="F F F"
C        0.77312972      -0.14993995      -0.08988997
C        2.28441921      -0.11750995       0.07302997
C        2.84579898       1.28438944      -0.16819993
C        4.33277850       1.31307950       0.04718998
C        5.20903815       1.66432940      -0.90574967
O        6.57279725       1.72472931      -0.83991966
C        7.18119718       1.33441953       0.38549984
H        0.39521985      -1.16163949       0.08820997
H        0.48025981       0.14949995      -1.10105955
H        0.28759988       0.52386978       0.62340973
H        2.73695892      -0.82811964      -0.62929977
H        2.54090889      -0.45765982       1.08388955
H        2.38139895       1.99578922       0.52513979
H        2.59089899       1.61451934      -1.18284957
H        4.67092812       1.03440959       1.04011960
H        4.89598792       1.95888918      -1.90304928
H        8.26502655       1.42798939       0.26951991
H        6.95605714       0.28803988       0.61763974
H        6.87116735       1.99146918       1.20472947
