13
Properties=species:S:1:pos:R:3 atomization_energy=-1442.81 smiles=C.C.C.C.C.C.C.H.H.H.H.H.H pbc="F F F"
C        0.88638968       0.02474999      -0.05569998
C        2.08631912       0.01927999      -0.04836998
C        3.61846858       0.00872000      -0.03251999
C        4.81871803      -0.00563000      -0.00982000
C        6.25130755      -0.02930999       0.03358999
C        6.99688737      -0.74947972      -1.05937960
C        7.02453732       0.75006967      -0.99719963
H       -0.17857992       0.02845999      -0.06023998
H        6.68346722      -0.07818997       1.02934960
H        6.43260755      -1.21286955      -1.86091930
H        7.89679702      -1.28797948      -0.78534969
H        7.94424690       1.22934956      -0.68185974
H        6.47934738       1.29908950      -1.75655926
