17
Properties=species:S:1:pos:R:3 atomization_energy=-1712.54 smiles=C.C.C.C.C.O.C.H.H.H.H.H.H.H.H.H.H pbc="F F F"
C        1.87359932       0.14067994      -0.73045969
C        1.83239931      -0.13055995       0.74486969
C        0.53916976       0.02391999      -0.02689999
C       -0.32882986       1.21708954       0.20478992
C       -1.70554936       0.70459971      -0.18436993
O       -1.67735929      -0.70508973       0.09152996
C       -0.35783985      -1.15719960      -0.25440990
H        2.20746903       1.12147958      -1.05339960
H        2.19128905      -0.66621975      -1.38213941
H        2.11605913      -1.11905960       1.09002952
H        2.13073913       0.66753975       1.41718948
H       -0.31693989       1.48876943       1.26695953
H       -0.04670998       2.09482911      -0.38332985
H       -2.50907907       1.17983951       0.38453984
H       -1.89895925       0.84056967      -1.25445955
H       -0.36223984      -1.45658937      -1.30731954
H       -0.10711996      -2.01999915       0.36755987
