15
Properties=species:S:1:pos:R:3 atomization_energy=-1588.0 smiles=C.C.C.C.C.C.O.H.H.H.H.H.H.H.H pbc="F F F"
C        1.11654954      -0.10591996       0.12232995
C        2.43379907       0.01192999      -0.06584997
C        3.23693867       1.27439952      -0.03338998
C        4.49049815       0.89125967      -0.81076966
C        4.49311836      -0.60259978      -0.71057971
C        5.53859791      -1.41575940      -0.87937967
O        3.23828864      -1.07026958      -0.36818985
H        0.63493975      -1.07592963       0.05729998
H        0.49818981       0.75677973       0.34206987
H        3.49324868       1.52621943       1.00262961
H        2.72193890       2.12527919      -0.48916982
H        4.39546818       1.19373956      -1.85994921
H        5.38724811       1.35307943      -0.38686984
H        5.42679800      -2.48885901      -0.76497968
H        6.51930756      -1.02965958      -1.13261950
