16
Properties=species:S:1:pos:R:3 atomization_energy=-1595.95 smiles=C.C.C.C.C.C.H.H.H.H.H.H.H.H.H.H pbc="F F F"
C        0.98690962      -0.09008996       0.00872000
C        2.50638896      -0.03745998       0.01502000
C        3.01765877       1.40309943      -0.00066000
C        4.54552807       1.45143942       0.00097000
C        5.03228818       2.83847885       0.00110000
C        5.43377799       3.97129833       0.00204000
H        0.64363976      -1.12926955       0.02362999
H        0.58154974       0.38867984      -0.88837963
H        0.57295976       0.41699983       0.88610965
H        2.88840890      -0.57813980      -0.85870964
H        2.88001888      -0.55514977       0.90616961
H        2.62799900       1.94099928       0.87324966
H        2.63116904       1.92166919      -0.88756964
H        4.93457795       0.92772962      -0.88008966
H        4.93329812       0.92862962       0.88309966
H        5.78925773       4.97534812       0.00307000
