15
Properties=species:S:1:pos:R:3 atomization_energy=-1545.31 smiles=C.C.C.C.C.O.O.H.H.H.H.H.H.H.H pbc="F F F"
C        0.71858971      -0.47800980       0.19228992
C        2.12531905      -0.73468970      -0.27802990
C        2.43091896      -1.79365927      -1.04724960
C        3.16072883       0.28937989       0.12970995
C        3.43687864       0.28943988       1.62433932
O        3.71150866      -0.93379963       2.13684908
O        3.46328864       1.30156954       2.31066898
H        0.37303984       0.49858981      -0.16193994
H        0.67053972      -0.48946981       1.28554953
H        0.01809000      -1.23298956      -0.17901993
H        1.67175930      -2.51059911      -1.35172946
H        3.43748853      -1.96709928      -1.41643943
H        2.81297901       1.28796951      -0.15838994
H        4.11706833       0.12485995      -0.37978986
H        3.64072848      -1.64603930       1.47078944
