17
Properties=species:S:1:pos:R:3 atomization_energy=-1724.05 smiles=C.C.C.C.C.O.C.H.H.H.H.H.H.H.H.H.H pbc="F F F"
C        2.30334910      -0.45947983      -1.50824940
C        2.39334910       0.06383997      -0.08388997
C        3.25228874       1.32077952      -0.02627999
C        2.64772904       2.62061907      -0.64084973
C        3.16372880       3.34732880       0.61822975
O        3.37853865       4.50748812       0.89781965
C        3.32758868       2.01019923       1.36991952
H        1.70441929      -1.37484943      -1.54029938
H        3.29770862      -0.68685975      -1.90631924
H        1.83732923       0.27630989      -2.17139904
H        2.83177895      -0.71131973       0.55500979
H        1.38496943       0.26481989       0.29590987
H        4.26109825       1.11981950      -0.41769983
H        1.55715940       2.64418908      -0.72566969
H        3.10553868       2.94843876      -1.57631942
H        4.27872814       1.89538927       1.89392928
H        2.49584909       1.80235927       2.04945920
