17
Properties=species:S:1:pos:R:3 atomization_energy=-1698.66 smiles=C.C.C.C.C.C.O.H.H.H.H.H.H.H.H.H.H pbc="F F F"
C        0.95076960       0.17602993      -0.90589962
C        2.41430900       0.09194996      -0.62361973
C        3.21750866       1.15816956      -0.48336982
C        4.65498835       1.10971956      -0.19587993
C        5.59211787       0.55153979      -1.23562945
C        5.57817758       2.02550918      -0.96138960
O        6.70636728       2.54665902      -0.24267990
H        0.72341971      -0.33042986      -1.84930928
H        0.60144978       1.21050950      -0.98113962
H        0.38809986      -0.31675988      -0.10673996
H        2.83389878      -0.90740963      -0.53133979
H        2.78346887       2.15379918      -0.56903979
H        4.89140811       0.91885967       0.84598968
H        5.18555772       0.21642991      -2.18349908
H        6.43946743      -0.03162999      -0.89648962
H        5.15078799       2.66496906      -1.72826926
H        7.03475724       1.92758926       0.43225985
