13
Properties=species:S:1:pos:R:3 atomization_energy=-1365.01 smiles=N.C.N.C.C.C.C.H.H.H.H.H.H pbc="F F F"
N        1.00919962      -0.12708995       0.26745990
C        2.34902913      -0.05113998      -0.00960000
N        2.97220887      -1.15780948      -0.27590988
C        3.11849867       1.25053945       0.00000000
C        2.45385914       2.41672911      -0.01990999
C        4.52449827       1.25053945       0.00000000
C        5.71465750       1.25053945       0.00000000
H        0.64355977       0.61278974       0.85575969
H        0.67475971      -1.03579962       0.56044980
H        2.31513903      -1.93716927      -0.27936987
H        1.37377943       2.47623891      -0.06728997
H        2.99026872       3.36132864      -0.02760999
H        6.77911742       1.23332958      -0.00476000
