21
Properties=species:S:1:pos:R:3 atomization_energy=-2047.58 smiles=C.C.C.C.C.C.C.H.H.H.H.H.H.H.H.H.H.H.H.H.H pbc="F F F"
C        2.49281909      -0.86852967       1.25944952
C        2.49703908      -0.08066997      -0.03290999
C        1.90071926      -0.62212978      -1.11192960
C        3.19319881       1.29842953      -0.02377999
C        3.02574876       2.07889919      -1.34855942
C        2.61396888       2.18405925       1.09840957
C        4.70671828       1.11678950       0.21168992
H        3.51015867      -1.03051959       1.62540933
H        2.03871922      -1.85799932       1.13555954
H        1.91734928      -0.34783987       2.03001922
H        1.42443947      -1.59802937      -1.06567956
H        1.86084928      -0.12902995      -2.07629917
H        3.47964854       1.54623939      -2.19266905
H        3.51187856       3.06074888      -1.29328954
H        1.96871925       2.25496913      -1.58028935
H        2.82393877       1.77572924       2.09331917
H        1.52719936       2.28940906       0.99956958
H        3.04853882       3.19071865       1.07257955
H        4.92117815       0.68942974       1.19727952
H        5.23209769       2.07764914       0.16049993
H        5.14894799       0.45663981      -0.54335978
