15
Properties=species:S:1:pos:R:3 atomization_energy=-1526.93 smiles=C.C.O.C.O.C.C.H.H.H.H.H.H.H.H pbc="F F F"
C        0.95973960      -0.01396000      -0.09059997
C        2.47952906       0.00839000      -0.00844000
O        3.00942874       0.17654994      -1.31728952
C        3.06010871      -1.24281950       0.68099973
O        3.69207865      -0.83350969       1.91933928
C        3.62877858       0.54144976       1.89514929
C        2.99175873       1.08744956       0.86906966
H        0.49688979      -0.12024995       0.89688962
H        0.61950976      -0.84235964      -0.72204974
H        0.57930979       0.90574967      -0.55006978
H        3.96747854       0.32651986      -1.22401956
H        3.82182839      -1.73520926       0.06520997
H        2.28826903      -1.98301924       0.92850963
H        4.10002840       1.03021957       2.73287898
H        2.84752896       2.14389922       0.70523974
