19
Properties=species:S:1:pos:R:3 atomization_energy=-1795.05 smiles=C.C.C.C.O.C.O.H.H.H.H.H.H.H.H.H.H.H.H pbc="F F F"
C        0.96993959      -0.03626998       0.04587998
C        2.50637912       0.00010000       0.00454000
C        3.05576887      -0.64462972       1.28999952
C        2.99249882      -0.79357966      -1.22808954
O        4.41186820      -0.86338969      -1.30017944
C        2.96266873       1.47181945      -0.08697997
O        4.38118825       1.58060943      -0.17719992
H        0.53822976       0.41119983      -0.85714966
H        0.58303976       0.51698981       0.90958965
H        0.59884976      -1.06540956       0.11681996
H        2.71836892      -0.09821996       2.17849913
H        4.15056833      -0.66131973       1.30884955
H        2.71029886      -1.68055935       1.38748947
H        2.63032903      -0.33697988      -2.15663917
H        2.61653888      -1.82231930      -1.20053951
H        4.73813806       0.05569998      -1.19529947
H        2.62536896       2.05394918       0.77835967
H        2.54558888       1.94581918      -0.98280962
H        4.73516813       1.48288935       0.72577970
