19
Properties=species:S:1:pos:R:3 atomization_energy=-1846.58 smiles=C.C.C.C.C.C.O.H.H.H.H.H.H.H.H.H.H.H.H pbc="F F F"
C        2.49643904      -1.30030952      -0.74054972
C        1.97874916      -0.02169999      -0.09870996
C        3.09312878       0.92387961       0.31105988
C        3.91056850       0.46621982       1.49484935
C        3.79139851       1.72229936      -0.76955968
C        2.82463899       2.40815893       0.14953994
O        3.41317868       3.28212867       1.12184950
H        1.65869939      -1.92463925      -1.06735958
H        3.09610881      -1.88730924      -0.03837999
H        3.11919889      -1.08086952      -1.61376942
H        1.37408942      -0.27204991       0.78082967
H        1.30353949       0.47026983      -0.80976968
H        4.71065818       1.17054956       1.74665929
H        4.38676830      -0.49719982       1.28973949
H        3.27108868       0.35410986       2.37634904
H        3.48993860       1.57599933      -1.80044925
H        4.84854813       1.93287926      -0.65236972
H        1.86733924       2.70858881      -0.26609990
H        3.60735868       4.15326828       0.73503969
