15
Properties=species:S:1:pos:R:3 atomization_energy=-1559.03 smiles=C.C.C.C.C.O.C.H.H.H.H.H.H.H.H pbc="F F F"
C        0.99999962       0.00000000       0.00000000
C        2.19015911       0.00000000       0.00000000
C        3.63415853       0.00000000       0.00000000
C        4.20693837       1.12456951       0.84007964
C        5.58146799       0.60192978       1.18133950
O        5.44951791      -0.81493969       1.33034943
C        4.24187818      -1.22878951       0.66574971
H       -0.06600997       0.00060000       0.00069000
H        4.02182842       0.08330996      -1.02300958
H        3.62629867       1.26066954       1.76202929
H        4.23543818       2.08708923       0.32089988
H        6.29136766       0.78996968       0.36744986
H        5.98168756       1.03619957       2.10023922
H        4.49028821      -2.00543925      -0.06491997
H        3.58438846      -1.67448940       1.42057943
