15
Properties=species:S:1:pos:R:3 atomization_energy=-1599.06 smiles=C.C.C.C.C.O.C.H.H.H.H.H.H.H.H pbc="F F F"
C        1.05762956      -0.00417000       0.02126999
C        2.39617900      -0.01117000       0.04026998
C        3.25680875       1.21710947       0.06050998
C        4.42721801       0.84448970      -0.83156964
C        4.51051811      -0.64802975      -0.65008972
O        5.49510761      -1.30902946      -0.96299960
C        3.24526863      -1.24677946      -0.08463997
H        0.48668981      -0.92627965      -0.04064999
H        0.49515981       0.92412960       0.06897997
H        3.60386869       1.40119951       1.08438954
H        2.74579884       2.11451915      -0.29967989
H        4.21522821       1.05985954      -1.88440920
H        5.35182787       1.33574945      -0.51922978
H        2.82714892      -1.97353928      -0.78417969
H        3.45636871      -1.68636928       0.89338966
