15
Properties=species:S:1:pos:R:3 atomization_energy=-1528.92 smiles=C.C.C.C.O.C.O.H.H.H.H.H.H.H.H pbc="F F F"
C        0.98765961      -0.05320998      -0.03167999
C        2.51569898      -0.01355000       0.01988999
C        3.02541871      -0.67102975       1.30446945
C        3.04255882      -0.79580970      -1.16463959
O        3.36084871      -0.28249989      -2.23281924
C        2.95433876       1.43939943      -0.04732998
O        3.31103877       2.09160911       0.93163961
H        0.60995978       0.40500983      -0.95358960
H        0.54708981       0.49458980       0.80941969
H        0.61320974      -1.08271961      -0.00135000
H        2.64188908      -0.16222993       2.19651912
H        4.12072839      -0.64270973       1.35350953
H        2.72258891      -1.72274927       1.36432950
H        3.05840876      -1.89297925      -1.05080961
H        2.86497893       1.92619929      -1.03390960
