19
Properties=species:S:1:pos:R:3 atomization_energy=-1848.22 smiles=C.C.C.C.O.C.C.H.H.H.H.H.H.H.H.H.H.H.H pbc="F F F"
C        1.18123957      -0.80058967       0.68817976
C        2.65853891      -0.82581965       0.32715987
C        3.19694871       0.58633974       0.07100998
C        4.70056796       0.58226977      -0.24054991
O        4.93983805      -0.18690993      -1.41522950
C        5.33858805       1.92461919      -0.47177981
C        4.74855834       3.12797875      -0.48227982
H        0.81598970      -1.81780926       0.85900966
H        0.58830976      -0.35700987      -0.11746995
H        1.01099962      -0.22085992       1.60047938
H        2.79620882      -1.45010938      -0.56337981
H        3.21982884      -1.29561944       1.14357951
H        3.00159890       1.21088951       0.95159965
H        2.64162893       1.01640961      -0.77242969
H        5.23355819       0.09271997       0.58271980
H        4.54196818       0.30123987      -2.15627909
H        6.41417728       1.88560928      -0.64613973
H        3.68507848       3.26088869      -0.31617987
H        5.33487777       4.02514834      -0.66146974
