21
Properties=species:S:1:pos:R:3 atomization_energy=-1984.66 smiles=C.C.C.C.C.O.C.H.H.H.H.H.H.H.H.H.H.H.H.H.H pbc="F F F"
C        0.95042965       1.80657926       0.94611964
C        2.46326909       1.96213921       0.96132960
C        3.11162870       1.22589956      -0.21501992
C        4.64257820       1.36070942      -0.21565991
C        5.23429802       0.54399976      -1.36307944
O        4.96000789       2.74904887      -0.35919985
C        6.32516743       3.05595887      -0.11304996
H        0.50566979       2.33960911       1.79238929
H        0.66290973       0.75286973       1.01919957
H        0.52349980       2.21629911       0.02493999
H        2.85591898       1.56961939       1.90652931
H        2.70968898       3.02936871       0.92526964
H        2.70835894       1.63713933      -1.14916953
H        2.83485891       0.16520993      -0.17485993
H        5.03233814       0.99212960       0.74152971
H        4.94036794       0.96132960      -2.33229907
H        4.90965822      -0.50028980      -1.31514950
H        6.32820752       0.55345978      -1.33113948
H        6.42261725       4.14299839      -0.04851998
H        6.95204709       2.70905891      -0.93858963
H        6.66375762       2.62061907       0.83170969
