17
Properties=species:S:1:pos:R:3 atomization_energy=-1728.27 smiles=C.C.C.C.C.C.O.H.H.H.H.H.H.H.H.H.H pbc="F F F"
C        1.86252930      -0.85357968      -0.91659966
C        2.99936879      -0.46167981       0.01433000
C        3.06592873       1.02495960       0.20370992
C        4.12609825       1.77582929      -0.13141994
C        4.12059844       3.24965869       0.09774996
C        5.35493810       4.00980837      -0.30926987
O        3.16361877       3.81764853       0.61926973
H        1.82596928      -1.94168927      -1.03092957
H        1.99498920      -0.41279984      -1.91041925
H        0.89528966      -0.52314979      -0.52294978
H        3.94338847      -0.84895968      -0.38659984
H        2.84893899      -0.93442964       0.99157958
H        2.19209903       1.49723943       0.65278973
H        5.01512814       1.34281952      -0.57338979
H        5.98027753       3.42079858      -0.98546963
H        5.93213778       4.26450826       0.58318977
H        5.05733811       4.92151829      -0.83484970
