15
Properties=species:S:1:pos:R:3 atomization_energy=-1503.32 smiles=C.C.C.O.C.O.C.H.H.H.H.H.H.H.H pbc="F F F"
C        0.84927964      -0.03177999      -0.19888993
C        2.29596917       0.00799000       0.15250994
C        3.32037881      -0.84370968      -0.54812979
O        2.98617893      -1.43086950      -1.82205928
C        2.96111891      -0.36794985      -2.78695886
O        2.99519876       0.90287965      -2.11828911
C        3.32609866       0.65009975      -0.73722974
H        0.36563985       0.89762965       0.11657995
H        0.36265985      -0.85917967       0.32631986
H        0.66268976      -0.15886994      -1.26773949
H        2.42369900       0.14266994       1.22266946
H        4.11188847      -1.29262944       0.03954999
H        3.83724861      -0.45356982      -3.43656853
H        2.04680922      -0.43978982      -3.38229864
H        4.12119849       1.22546946      -0.28015989
