13
Properties=species:S:1:pos:R:3 atomization_energy=-1417.3 smiles=C.C.C.C.C.C.O.H.H.H.H.H.H pbc="F F F"
C        1.70016928      -0.61957978       1.04623958
C        2.44809893      -0.09680996       0.06494997
C        3.15225883       1.22560950       0.14541994
C        4.60278808       1.02046962       0.04604998
C        5.79116788       0.86465967      -0.03269999
C        7.21732698       0.67363973      -0.12466995
O        7.96887696       1.62182938      -0.29881989
H        1.21049953      -1.58047935       0.91909963
H        1.56075941      -0.10859996       1.99408926
H        2.54955906      -0.64860974      -0.86777968
H        2.91261882       1.74427930       1.08058956
H        2.80503890       1.86401931      -0.67437976
H        7.56667708      -0.36611985      -0.02867999
