12
Properties=species:S:1:pos:R:3 atomization_energy=-1155.53 smiles=C.C.C.C.H.H.H.H.H.H.H.H pbc="F F F"
C        0.33722988       1.02277958      -0.13047995
C        0.99606962      -0.33061987       0.21119992
C       -0.32984988      -0.99628960      -0.21133992
C       -1.02068958       0.34048987       0.13054995
H        0.58766978       1.85482928       0.53190981
H        0.48315982       1.33456942      -1.17071951
H        1.23192952      -0.45103982       1.27486948
H        1.87360929      -0.59674980      -0.38284985
H       -0.37413985      -1.25729953      -1.27478949
H       -0.64057973      -1.85871923       0.38290984
H       -1.83864930       0.63706974      -0.53220977
H       -1.35866945       0.41001984       1.17083949
