15
Properties=species:S:1:pos:R:3 atomization_energy=-1488.47 smiles=C.C.C.N.C.C.H.H.H.H.H.H.H.H.H pbc="F F F"
C        0.77447970       1.35953949      -0.09492996
C       -0.72213969       1.17838949       0.18855993
C       -0.99363961      -0.24583991      -0.19654992
N       -0.74582969      -1.34457953       0.72282969
C        0.31245987      -0.98312964      -0.20597991
C        1.39580946      -0.01685999       0.17298994
H        0.91246963       1.61796934      -1.15234954
H        1.22623957       2.15221908       0.50786980
H       -1.32130954       1.88114920      -0.39844985
H       -0.93953960       1.34317947       1.25006949
H       -1.68843928      -0.39364985      -1.01044961
H       -0.54972976      -1.00940962       1.66711931
H        0.53598982      -1.64901934      -1.02674958
H        1.66116933      -0.12462995       1.23093950
H        2.30047909      -0.16303993      -0.42513984
