21
Properties=species:S:1:pos:R:3 atomization_energy=-2065.77 smiles=C.C.C.C.C.C.C.H.H.H.H.H.H.H.H.H.H.H.H.H.H pbc="F F F"
C        1.00090959       0.01227000      -0.02539999
C        2.52111905       0.00931000       0.03499998
C        3.07233870       1.12606962       0.91678967
C        4.49435831       0.66666972       1.19035958
C        4.36776826      -0.83600966       1.41264942
C        3.10039870      -1.27575946       0.65870973
C        3.39100860      -2.34618915      -0.38698985
H        0.63369973      -0.80547966      -0.65425975
H        0.63357975       0.95445963      -0.44587984
H        0.56035978      -0.10461996       0.97072964
H        2.91279873       0.13926995      -0.98276962
H        2.51174899       1.20545946       1.85625925
H        3.04527870       2.09887916       0.41756985
H        5.12721823       0.86106969       0.31577989
H        4.93964829       1.17676952       2.04960921
H        5.27142807      -1.36303945       1.08994953
H        4.23869830      -1.03923959       2.48252902
H        2.39364913      -1.69470933       1.38778949
H        4.11742840      -1.99357918      -1.12628952
H        2.47740897      -2.63056900      -0.91806962
H        3.80087859      -3.24462872       0.08530996
