17
Properties=species:S:1:pos:R:3 atomization_energy=-1613.95 smiles=C.C.C.C.N.C.H.H.H.H.H.H.H.H.H.H.H pbc="F F F"
C        1.01327962       0.01249000      -0.06357998
C        2.50383890       0.02846999      -0.03148998
C        3.34345880      -0.73459969      -1.04240957
C        2.73760893      -1.54492941      -2.13602926
N        3.22709876       0.71984973      -1.09523953
C        4.42757834       1.40983945      -0.63336975
H        0.61739976       0.77405969       0.61555977
H        0.64037976      -0.96144965       0.26751990
H        0.60936977       0.21534992      -1.06047964
H        2.87974889       0.08846996       0.98497960
H        4.27663833      -1.16719949      -0.69532975
H        1.86916927      -1.06038956      -2.59418888
H        2.42185900      -2.51888895      -1.75020934
H        3.47586861      -1.71740930      -2.92558890
H        4.18139841       2.45012893      -0.39771986
H        5.17782780       1.41923943      -1.43090949
H        4.88962816       0.96586961       0.25676990
