13
Properties=species:S:1:pos:R:3 atomization_energy=-1463.66 smiles=C.C.C.C.C.C.O.H.H.H.H.H.H pbc="F F F"
C        1.03344960       0.00016000      -0.20495991
C        2.34162902      -0.04484998       0.04535998
C        3.17978867      -1.19874947       0.18935993
C        4.43952825      -0.81065971       0.43845981
C        4.62848802       0.68976976       0.49801980
C        3.21240879       1.15518953       0.23055991
O        2.83606883       2.31486903       0.17399994
H        0.51916980       0.95376963      -0.28929990
H        0.44486982      -0.90154962      -0.33106987
H        2.83757879      -2.21999904       0.10766996
H        5.26260808      -1.49785941       0.58680977
H        4.95646819       1.00881961       1.48947937
H        5.30156802       1.03604962      -0.28898988
