13
Properties=species:S:1:pos:R:3 atomization_energy=-1364.97 smiles=C.C.C.O.C.C.O.H.H.H.H.H.H pbc="F F F"
C        0.82356967      -0.04889998       0.02801999
C        2.24819908       0.40824983      -0.14528994
C        1.12229954       1.37756944      -0.29700988
O        0.93054961       2.37418909       0.73904974
C        0.50303980       3.43549864      -0.03394999
C        0.43603983       3.15471880      -1.32686953
O        0.80758966       1.85902921      -1.62992934
H        0.47879982      -0.27489989       1.02879958
H        0.38646986      -0.66173973      -0.75002968
H        2.77571902       0.10581996      -1.04093961
H        2.86796880       0.49262981       0.73792970
H        0.27995989       4.34574832       0.49013981
H        0.14261994       3.77032859      -2.15622913
