18
Properties=species:S:1:pos:R:3 atomization_energy=-1774.48 smiles=N.C.C.C.C.C.C.H.H.H.H.H.H.H.H.H.H.H pbc="F F F"
N        0.39018985      -0.11407996       0.38083984
C        1.79433930       0.02510999       0.01005000
C        2.36532898       1.41292950       0.21540991
C        1.67754929       2.45209914       0.72726972
C        3.80457853       1.59138940      -0.22626991
C        4.75204808       0.70279970       0.52979981
C        5.54624759      -0.21408992      -0.04080998
H        0.11296996      -1.08336961       0.24947990
H       -0.17086993       0.43198982      -0.26814990
H        1.90470924      -0.25643990      -1.04332956
H        2.36734914      -0.69340970       0.60555975
H        0.64750976       2.35065919       1.05548960
H        2.12795920       3.43195868       0.84620965
H        4.13026828       2.62968887      -0.07500997
H        3.86922857       1.40617939      -1.30658954
H        4.77909799       0.82599968       1.61165942
H        5.55704787      -0.37220986      -1.11346958
H        6.20502747      -0.82932970       0.56361978
