21
Properties=species:S:1:pos:R:3 atomization_energy=-1991.66 smiles=C.C.C.C.C.C.O.H.H.H.H.H.H.H.H.H.H.H.H.H.H pbc="F F F"
C        0.92587965      -0.06332998      -0.01954999
C        2.46247904      -0.12512995      -0.00947999
C        2.91429884      -0.88499965       1.25292954
C        2.94656873      -0.90066967      -1.24620945
C        3.07791876       1.29681953       0.03420999
C        2.73304905       2.20910918      -1.14037957
O        3.37775869       3.46657853      -0.96886964
H        0.54419980       0.38827986      -0.94070966
H        0.54922977       0.52310979       0.82537970
H        0.49166982      -1.06686955       0.05235998
H        2.58011889      -0.37420984       2.16261917
H        4.00597848      -0.96586961       1.29617949
H        2.50476900      -1.90096919       1.27294950
H        2.57993898      -0.45275984      -2.17521907
H        2.59040896      -1.93677928      -1.22446947
H        4.04061852      -0.92628962      -1.29237951
H        4.17196829       1.22176953       0.10210996
H        2.77252880       1.79831932       0.96295960
H        1.65740935       2.39066909      -1.21533950
H        3.08251875       1.79078925      -2.08779917
H        3.04804879       3.85411847      -0.14004995
