15
Properties=species:S:1:pos:R:3 atomization_energy=-1585.2 smiles=C.C.O.C.C.C.C.H.H.H.H.H.H.H.H pbc="F F F"
C        0.96316960       0.04992998       0.04299998
C        2.48797913       0.02651999       0.07041997
O        2.94747889       1.24912955      -0.54619977
C        3.81190850       1.15092954      -1.60189937
C        4.26926823       0.00964000      -2.12693928
C        3.85592844      -1.24910949      -1.57773941
C        3.01334870      -1.25223954      -0.53887977
H        0.58657978       0.96490962       0.51393979
H        0.53626978      -0.81092971       0.56828980
H        0.58772977       0.05035998      -0.98715962
H        2.82007886       0.06438997       1.11459952
H        4.08519839       2.13075907      -1.97052923
H        4.95438797       0.01477000      -2.96745873
H        4.23691836      -2.16705919      -2.01152927
H        2.69559905      -2.19227919      -0.09933996
