15
Properties=species:S:1:pos:R:3 atomization_energy=-1612.57 smiles=C.C.C.C.C.C.C.H.H.H.H.H.H.H.H pbc="F F F"
C        0.82029965       0.17088994      -0.07232998
C        2.28915901       0.16779994      -0.34782987
C        3.17492877       0.92849961       0.31582988
C        4.61127802       0.96677964       0.09138996
C        5.39640773       1.77222928       0.82306968
C        5.21959771       0.15013993      -0.91104963
C        5.73729767      -0.53239977      -1.75085934
H        0.49409980      -0.83238966       0.21819992
H        0.27324989       0.46315982      -0.97381962
H        0.54945977       0.86357963       0.73067972
H        2.61708896      -0.50291979      -1.13835954
H        2.80233896       1.58589943       1.10032956
H        4.99641828       2.41657897       1.59871937
H        6.47032755       1.80920931       0.66450976
H        6.19665764      -1.13893952      -2.49700905
