13
Properties=species:S:1:pos:R:3 atomization_energy=-1384.56 smiles=C.C.C.C.C.O.O.H.H.H.H.H.H pbc="F F F"
C        0.99099959      -0.05480998       0.01090999
C        2.51205910       0.02806999      -0.04943998
C        3.03250872      -0.74951972      -1.19622956
C        3.45416863      -1.39171942      -2.11973925
C        2.92581877       1.49301944      -0.06189998
O        3.08670871       2.05084917      -1.28450955
O        3.03507871       2.16061919       0.95901963
H        0.60284978       0.49322979       0.87654964
H        0.65465976      -1.09454953       0.08954997
H        0.53129980       0.37837986      -0.88531967
H        2.93353885      -0.40832985       0.86500965
H        3.83138847      -1.97437917      -2.92992875
H        2.95477883       1.43248947      -2.02863922
