19
Properties=species:S:1:pos:R:3 atomization_energy=-1908.75 smiles=C.C.C.C.C.C.C.H.H.H.H.H.H.H.H.H.H.H.H pbc="F F F"
C        0.92326966      -0.15900993      -0.05841998
C        2.40855913       0.01064999      -0.13068995
C        3.11901872       1.14517955       0.03984999
C        2.47592905       2.49321904       0.26888989
C        4.58806809       1.13308960      -0.04277999
C        5.23306816       0.28121987      -1.10703955
C        5.34954780       1.89046931       0.76573970
H        0.68620975      -1.00818960       0.59104976
H        0.52393980      -0.37152986      -1.05452961
H        0.40291984       0.71034970       0.34899987
H        2.93556885      -0.92584962      -0.30678989
H        1.43877945       2.52889893      -0.07219997
H        3.00112880       3.27589862      -0.29082988
H        2.49453898       2.75280885       1.33214944
H        4.75892814       0.45168982      -2.07974917
H        5.15914772      -0.78221970      -0.85898966
H        6.29731763       0.51411979      -1.22433952
H        4.92513824       2.51848900       1.54330944
H        6.43225732       1.88853923       0.68706975
