15
Properties=species:S:1:pos:R:3 atomization_energy=-1571.73 smiles=C.C.C.C.C.C.O.H.H.H.H.H.H.H.H pbc="F F F"
C        0.68760974       0.84050968       0.27870991
C        1.78057930       0.79199968      -0.49329982
C        3.09401875       1.34725941      -0.15468994
C        3.83244851       2.13876907      -1.20163955
C        3.24539883       2.84546893      -0.00676000
C        4.11839837       3.38900863       1.06023955
O        5.23181811       2.93175890       1.29207948
H       -0.24427990       0.39026984      -0.04793998
H        0.70196972       1.32224947       1.25119955
H        1.70530939       0.27904989      -1.45109940
H        3.69779850       0.71053971       0.48758981
H        3.36616861       2.30508918      -2.16621918
H        4.91027794       2.01947921      -1.25245957
H        2.36611903       3.45466875      -0.19462992
H        3.70537853       4.22839839       1.64461931
