17
Properties=species:S:1:pos:R:3 atomization_energy=-1685.32 smiles=C.C.C.C.C.O.C.H.H.H.H.H.H.H.H.H.H pbc="F F F"
C        1.00169957      -0.05400998       0.00292000
C        2.51999896       0.00000000       0.00000000
C        3.00201878       1.36116943       0.00000000
C        3.39929870       2.48306901       0.00000000
C        3.88131852       3.84423844       0.00000000
O        2.78030893       4.73653828      -0.16445994
C        3.20223883       6.09239740      -0.17098993
H        0.65737976      -1.09364959       0.00284000
H        0.58498977       0.44163982      -0.88146966
H        0.58843977       0.44034984       0.88964967
H        2.89566897      -0.53282981      -0.88075966
H        2.89909891      -0.53405980       0.87853966
H        4.59395800       3.99436847      -0.81888968
H        4.38919825       4.06684835       0.94523964
H        2.32117908       6.72687727      -0.29945989
H        3.88908855       6.27688737      -1.00267963
H        3.68196850       6.34989741       0.77824971
