19
Properties=species:S:1:pos:R:3 atomization_energy=-1914.37 smiles=C.C.C.C.C.C.C.H.H.H.H.H.H.H.H.H.H.H.H pbc="F F F"
C        0.99709958       0.20472993       0.87804963
C        2.47509913       0.09214996       0.68445970
C        3.26618866       1.13497956       0.38521984
C        4.71517794       1.09778959       0.18404993
C        5.40324793      -0.23933990       0.28655990
C        5.35153768       2.25597921      -0.08818996
C        6.81181753       2.48708890      -0.31773987
H        0.72748968      -0.12335995       1.88712920
H        0.47720982      -0.43553983       0.15817994
H        0.63543975       1.22973953       0.74525973
H        2.88329894      -0.90647967       0.80428967
H        2.79624895       2.11279914       0.28192990
H        4.97242814      -0.94959961      -0.42810984
H        5.29713809      -0.64879974       1.29714945
H        6.47246731      -0.19808993       0.07062997
H        4.76584807       3.17311880      -0.15296994
H        7.43520695       1.60842933      -0.14668994
H        7.16552741       3.27339877       0.35694985
H        6.97414727       2.82530892      -1.34576952
