17
Properties=species:S:1:pos:R:3 atomization_energy=-1697.89 smiles=C.C.C.C.C.C.O.H.H.H.H.H.H.H.H.H.H pbc="F F F"
C        0.99999962       0.00000000       0.00000000
C        2.44399905       0.00000000       0.00000000
C        3.63415853       0.00000000       0.00000000
C        5.07815797       0.00000000       0.00000000
C        5.64939757       1.41730947       0.00285000
C        5.31418812       2.19828922      -1.26261956
O        5.93793786       3.47803866      -1.21187953
H        0.60614977       1.02093958       0.01123999
H        0.60587977      -0.52013979       0.87844964
H        0.60595976      -0.50055980      -0.88977962
H        5.45834799      -0.54812979      -0.86979966
H        5.44630776      -0.52841978       0.88732968
H        6.74053748       1.36581951       0.10885995
H        5.29300794       1.97349916       0.87952968
H        4.23701828       2.35135916      -1.38017943
H        5.68626772       1.67947937      -2.15175908
H        5.53737764       3.96391839      -0.47081982
