13
Properties=species:S:1:pos:R:3 atomization_energy=-1352.8 smiles=C.C.C.O.C.C.O.H.H.H.H.H.H pbc="F F F"
C        0.99999962       0.00000000       0.00000000
C        2.19015911       0.00000000       0.00000000
C        3.63415853       0.00000000       0.00000000
O        4.15182847       1.07801956       0.79079966
C        5.36323778       0.54485976       1.31851951
C        5.01409812      -0.89747964       1.56696941
O        4.15905827      -1.24696947       0.47868980
H       -0.06524997      -0.00054000       0.00547000
H        4.00545843       0.13280995      -1.02311960
H        6.14476774       0.64695974       0.55580981
H        5.66682761       1.08182951       2.22063921
H        5.88859752      -1.55305939       1.59613941
H        4.44342827      -1.01567961       2.49328893
