15
Properties=species:S:1:pos:R:3 atomization_energy=-1590.04 smiles=C.C.C.C.C.C.O.H.H.H.H.H.H.H.H pbc="F F F"
C        1.06159961       0.08764997      -0.00333000
C        2.53423901      -0.06073998      -0.09461996
C        3.27622867      -1.16664953       0.01330000
C        4.71503815      -0.79426966      -0.16894994
C        4.62153831       0.68691974      -0.42511985
C        5.61372803       1.53349944      -0.71069969
O        3.29187875       1.08586959      -0.34888985
H        0.56331975      -0.88462967       0.04379998
H        0.67804973       0.62066973      -0.87874966
H        0.79148966       0.65520972       0.89210965
H        2.91383884      -2.16514904       0.19907992
H        5.28536785      -1.00817963       0.73926971
H        5.14806785      -1.32246951      -1.02231958
H        6.64113713       1.19398949      -0.77936968
H        5.40806796       2.58324906      -0.88804964
