17
Properties=species:S:1:pos:R:3 atomization_energy=-1727.44 smiles=C.C.C.C.C.C.O.H.H.H.H.H.H.H.H.H.H pbc="F F F"
C        1.05940963      -0.05460998       0.05375998
C        2.57599908       0.00469000       0.06633998
C        3.11650878       1.18021953       0.86474969
C        4.50621839       0.70662971       1.21450958
C        4.26058855      -0.76083968       1.33822949
C        5.00661802      -1.62124940       2.03483925
O        3.10055867      -1.17608950       0.70003970
H        0.71856971      -0.92724962      -0.51353981
H        0.63114974       0.84553965      -0.39688985
H        0.66049971      -0.16637993       1.06789956
H        2.95440891       0.02998999      -0.96393959
H        2.53474898       1.33320948       1.78312936
H        3.10961888       2.11676906       0.29944989
H        5.20591782       0.90635962       0.39602984
H        4.87772822       1.16693959       2.13404921
H        4.73128828      -2.66934903       2.08964913
H        5.89938771      -1.30158947       2.55997908
