19
Properties=species:S:1:pos:R:3 atomization_energy=-1852.6 smiles=C.C.C.C.C.C.O.H.H.H.H.H.H.H.H.H.H.H.H pbc="F F F"
C        2.46976914      -0.79820968       1.41783949
C        2.45517909      -0.03181998       0.11465996
C        1.88567931      -0.59562976      -0.96709960
C        3.11415882       1.34906951       0.12967995
C        3.18577876       2.05126917      -1.23528956
C        2.43016903       2.29020920       1.12851950
O        4.46562838       1.17241959       0.56539978
H        3.48994870      -0.89508962       1.80204928
H        2.07239914      -1.81284931       1.30219948
H        1.85607921      -0.29489989       2.17083911
H        1.43387943      -1.58299938      -0.91803965
H        1.83892926      -0.10404996      -1.93281920
H        3.72965860       1.44300941      -1.96774916
H        3.74267864       2.99299894      -1.15777958
H        2.19051918       2.27734915      -1.63272933
H        2.51830909       1.92353921       2.15723921
H        1.36883941       2.42566895       0.89445968
H        2.91108894       3.27585875       1.12620954
H        4.85487811       0.48774982      -0.00538000
