19
Properties=species:S:1:pos:R:3 atomization_energy=-1850.64 smiles=C.C.C.C.C.C.O.H.H.H.H.H.H.H.H.H.H.H.H pbc="F F F"
C        0.98589960      -0.15567993       0.05788998
C        2.47480895       0.17089994       0.11562995
C        2.87523897       1.63952941       0.04972998
C        1.98404926       2.64277905      -0.05753998
C        4.38153848       1.85487925       0.09693996
C        4.89314818       3.27565865      -0.12770995
O        4.84686811       1.42559944       1.37510946
H        0.83937967      -1.23950955       0.11231995
H        0.53646982       0.19350992      -0.87745968
H        0.44648981       0.29459990       0.89758966
H        2.96528893      -0.35531985      -0.71294973
H        2.87138890      -0.25840990       1.04402960
H        0.91389965       2.46836895      -0.09725997
H        2.28265920       3.68501842      -0.11041995
H        4.85106791       1.21012948      -0.65533973
H        4.54402821       3.95682839       0.65661974
H        4.58731816       3.66575848      -1.10353959
H        5.98806750       3.29209879      -0.07995997
H        4.29724824       1.87955926       2.03683923
