17
Properties=species:S:1:pos:R:3 atomization_energy=-1701.53 smiles=C.C.C.C.C.C.O.H.H.H.H.H.H.H.H.H.H pbc="F F F"
C        1.08065958       0.35502986       0.90112968
C        2.35148911       0.11269995       0.14100994
C        2.62443886      -1.06892958      -0.43752981
C        3.36962858       1.20568947       0.07280997
C        2.89973882       2.55318910      -0.49340980
C        3.57183852       3.14367880       0.74399972
O        3.69209858       1.83302925       1.34801943
H        1.29104947       0.76985970       1.89059926
H        0.51391979      -0.56944976       1.04779961
H        0.43763983       1.05442955       0.35963985
H        1.92148928      -1.89504925      -0.38850986
H        3.55673851      -1.25428947      -0.96289961
H        4.30598849       0.86915968      -0.39701983
H        1.82138934       2.72455886      -0.53360977
H        3.34923870       2.84129891      -1.44655946
H        4.55507830       3.59457861       0.57777979
H        2.94891894       3.81200842       1.34342953
