13
Properties=species:S:1:pos:R:3 atomization_energy=-1375.43 smiles=N.C.C.C.N.C.C.H.H.H.H.H.H pbc="F F F"
N        1.24694953       0.38617984       1.25140949
C        2.18956915       0.39131986       0.59089975
C        3.34100866       0.39758985      -0.21593991
C        4.54347812       0.74747968       0.25852990
N        5.70321781       0.77067971      -0.48964981
C        6.94442719       0.40075985       0.20655991
C        6.67772718       1.82136928      -0.16212993
H        3.23202881       0.10649996      -1.25416949
H        4.65579834       1.04063959       1.30268951
H        7.61516707      -0.17828993      -0.41225985
H        6.84103749       0.08967996       1.23666956
H        6.38439765       2.52540894       0.60441978
H        7.16372728       2.22972919      -1.03800961
