10
Properties=species:S:1:pos:R:3 atomization_energy=-1166.69 smiles=N.C.C.N.C.C.N.H.H.H pbc="F F F"
N        0.95462964      -0.02322999       0.00574000
C        2.11421913       0.04663998       0.00225000
C        3.54016868       0.04836998      -0.00203000
N        4.30753831       1.12122953      -0.00708000
C        5.59800779       0.65494975      -0.01062000
C        5.61810799      -0.71916969      -0.00756000
N        4.30225853      -1.09281955      -0.00175000
H        6.44193725       1.33418953      -0.01531000
H        6.42573758      -1.43759942      -0.00900000
H        3.94319847      -2.03802922       0.00180000
