20
Properties=species:S:1:pos:R:3 atomization_energy=-1914.87 smiles=N.C.C.C.C.C.C.H.H.H.H.H.H.H.H.H.H.H.H.H pbc="F F F"
N        1.42310943       2.21386916       1.98632920
C        2.84031885       2.16152910       1.64008933
C        3.00741892       1.82908922       0.15834995
C        4.47359801       1.70769934      -0.26341989
C        5.22432791       3.00170891      -0.13925995
C        6.20065760       3.21505877       0.98908964
C        6.70478719       3.03080876      -0.41426982
H        1.32588948       2.40488897       2.98247875
H        0.99592958       1.30265948       1.82639925
H        3.33756863       1.40648950       2.25825902
H        3.29001882       3.13261887       1.86946929
H        2.51371893       2.59656887      -0.45091983
H        2.50716892       0.87738965      -0.06258998
H        4.50466807       1.39400945      -1.31402953
H        4.96118830       0.91412966       0.31613987
H        4.65115797       3.85167842      -0.49465982
H        6.37285753       2.41096914       1.69610939
H        6.26273765       4.20595832       1.42501945
H        7.10771731       3.89751843      -0.92782967
H        7.20735737       2.10130924      -0.65769972
