11
Properties=species:S:1:pos:R:3 atomization_energy=-1243.84 smiles=N.C.C.C.N.C.C.H.H.H.H pbc="F F F"
N        0.99637962       0.11149995      -0.00000000
C        2.34604910      -0.05574998      -0.00000000
C        3.03843875      -1.20306951       0.00000000
C        2.42402905      -2.48030901      -0.00000000
N        1.92199923      -3.52680849      -0.00000000
C        3.04865868       1.18435953       0.00000000
C        3.63599854       2.23190908       0.00000000
H        0.60137976       1.04509961       0.00000000
H        0.37138985      -0.68644971       0.00000000
H        4.12271828      -1.19039958       0.00000000
H        4.15449839       3.16240885       0.00000000
