19
Properties=species:S:1:pos:R:3 atomization_energy=-1849.15 smiles=C.C.C.C.O.C.C.H.H.H.H.H.H.H.H.H.H.H.H pbc="F F F"
C        0.84815967      -0.17387994       0.04068999
C        2.37642903      -0.13431995      -0.07327997
C        2.82170892      -1.07950958      -1.19433948
C        2.93982896       1.28851947      -0.30196989
O        2.49244892       1.81076934      -1.54924945
C        2.61180893       2.23894912       0.82445970
C        2.02424916       3.44009864       0.72846974
H        0.49359981       0.44329981       0.87270967
H        0.50398980      -1.19759947       0.22709991
H        0.36189986       0.17602993      -0.87606965
H        2.78924902      -0.51897979       0.86861963
H        2.40413904      -0.78329968      -2.16292903
H        2.49465909      -2.10488918      -0.98884961
H        3.91336837      -1.09083963      -1.28333949
H        4.03308845       1.22385946      -0.36492985
H        1.53449942       1.94859924      -1.47440938
H        2.91026886       1.89857924       1.81480929
H        1.72636933       3.86557860      -0.22415991
H        1.84882923       4.04191853       1.61556942
