19
Properties=species:S:1:pos:R:3 atomization_energy=-1906.2 smiles=C.C.C.C.C.C.C.H.H.H.H.H.H.H.H.H.H.H.H pbc="F F F"
C        0.71586970      -0.59245979      -0.06274997
C        2.10183913      -0.03061999      -0.08132997
C        2.46749891       1.26717956      -0.12263996
C        1.50263945       2.42452917      -0.09715996
C        3.93511857       1.65351941      -0.14311994
C        4.31952808       2.36147916      -1.41240945
C        4.82414820       3.60195854      -1.45971941
H        0.65468972      -1.43353941      -0.76127968
H       -0.04898998       0.12749995      -0.36155984
H        0.47745982      -0.96502960       0.93800965
H        2.88332896      -0.79002967      -0.06873997
H        0.48145980       2.12767911       0.15137994
H        1.47923938       2.92532875      -1.07030958
H        1.80857923       3.15409882       0.66031973
H        4.57267840       0.76532972      -0.04983998
H        4.15104827       2.27402922       0.73575972
H        4.17756828       1.81189929      -2.34008904
H        4.98602779       4.18650837      -0.56004979
H        5.08466811       4.05936850      -2.40947913
