17
Properties=species:S:1:pos:R:3 atomization_energy=-1653.45 smiles=C.C.O.C.C.C.O.H.H.H.H.H.H.H.H.H.H pbc="F F F"
C        1.01159960      -0.06573997       0.04108999
C        2.52957897      -0.00625000      -0.02116999
O        2.93261885       0.00206000      -1.41357938
C        3.17357880       1.08081956       0.87823963
C        4.22995830       0.04541998       1.30094943
C        3.26267873      -1.07514955       0.85796967
O        3.87117858      -2.16373927       0.13069995
H        0.64895972      -0.08094996       1.07438952
H        0.63798975      -0.96647962      -0.45657982
H        0.56864975       0.80331971      -0.45562982
H        3.89367846       0.17323993      -1.40414938
H        2.53991899       1.42295942       1.70406931
H        3.56993871       1.95570918       0.35584987
H        5.15401782       0.09030997       0.71178970
H        4.48968817       0.05121998       2.36192907
H        2.65185894      -1.46312942       1.68252930
H        3.44789870      -2.13197909      -0.74815971
