17
Properties=species:S:1:pos:R:3 atomization_energy=-1661.83 smiles=C.C.C.C.O.C.O.H.H.H.H.H.H.H.H.H.H pbc="F F F"
C        0.98731960      -0.00148000       0.05399998
C        2.50927892       0.02189999       0.02776999
C        3.02347879       0.08207997      -1.41290944
C        3.08766884       1.13018956       0.88792966
O        4.39078845       0.64974977       1.22020949
C        4.22878825      -0.76884968       1.29545946
O        3.01624874      -1.16589960       0.64706976
H        0.61540976      -0.11927995       1.07840954
H        0.60105974      -0.85679968      -0.51221980
H        0.56255979       0.91590966      -0.36662984
H        4.11900850       0.06058997      -1.45372945
H        2.67898884       0.98834961      -1.92297929
H        2.67866889      -0.78885967      -1.98275921
H        2.53418905       1.25987949       1.82586923
H        3.15618888       2.09767920       0.38154984
H        5.08134794      -1.25709956       0.81465966
H        4.18582835      -1.07429957       2.34582907
