17
Properties=species:S:1:pos:R:3 atomization_energy=-1724.94 smiles=C.C.C.O.C.C.C.H.H.H.H.H.H.H.H.H.H pbc="F F F"
C        1.00567960       0.03035999      -0.09769996
C        2.51167909      -0.04375999       0.07861997
C        3.07077879       1.05603955       0.96492962
O        4.34321845       0.58399975       1.43208939
C        4.23662818      -0.79835969       1.43138943
C        5.19924820      -1.56180936       1.95372926
C        2.98182874      -1.29600954       0.79048967
H        0.64822973      -0.79487967      -0.72197972
H        0.71805969       0.97121960      -0.57766977
H        0.48692981      -0.02755999       0.86550965
H        2.99443874       0.00934000      -0.90679962
H        2.43528908       1.25814951       1.83588930
H        3.21290866       1.99126921       0.41411984
H        5.12556798      -2.64336901       1.95687924
H        6.07999784      -1.10953952       2.39819916
H        3.16261879      -2.11491922       0.08742997
H        2.27157908      -1.62593935       1.55614944
