17
Properties=species:S:1:pos:R:3 atomization_energy=-1656.57 smiles=C.C.C.O.C.C.O.H.H.H.H.H.H.H.H.H.H pbc="F F F"
C        0.97166963       0.00166000       0.05468998
C        2.49274894       0.00966000      -0.07763997
C        3.04160879      -1.31675950      -0.62147977
O        2.69027890      -1.49910946      -2.00113927
C        3.20713885      -0.41140984      -2.77938893
C        2.65102902       0.92051963      -2.27957900
O        2.93445885       1.11418961      -0.88688968
H        0.61067975       0.98546963       0.37333987
H        0.65004973      -0.74338971       0.79020971
H        0.47463983      -0.22976991      -0.89312964
H        2.91159890       0.17400994       0.92148965
H        2.64605886      -2.16606904      -0.05488998
H        4.13531844      -1.34033948      -0.54101979
H        4.30105844      -0.42561984      -2.71694905
H        2.92254881      -0.57490977      -3.82233861
H        3.10658889       1.74864930      -2.83158895
H        1.56856944       0.97716963      -2.43449903
