13
Properties=species:S:1:pos:R:3 atomization_energy=-1425.39 smiles=C.C.C.C.O.C.C.H.H.H.H.H.H pbc="F F F"
C        0.99999962       0.00000000       0.00000000
C        2.19015911       0.00000000       0.00000000
C        3.59615871       0.00000000       0.00000000
C        4.37016844      -1.07526953      -0.09008996
O        5.73063764      -0.84289970      -0.10411996
C        5.81797757       0.58841977      -0.26935989
C        4.46232839       1.19724949       0.08183997
H       -0.06514998      -0.00259000       0.00032000
H        4.08626827      -2.11374917      -0.13654994
H        6.08241769       0.79343968      -1.31497943
H        6.61867763       0.97902963       0.36765986
H        4.18773824       1.99063927      -0.62010974
H        4.46464833       1.60799935       1.09753953
