15
Properties=species:S:1:pos:R:3 atomization_energy=-1556.66 smiles=C.C.C.C.C.C.O.H.H.H.H.H.H.H.H pbc="F F F"
C        0.99999962       0.00000000       0.00000000
C        2.44399905       0.00000000       0.00000000
C        3.63415853       0.00000000       0.00000000
C        5.04015789       0.00000000       0.00000000
C        5.68916801      -1.17333959      -0.07603997
C        5.78023789       1.31442948       0.04926998
O        5.67429762       1.89692924       1.34213949
H        0.60602978       1.02087959       0.01202000
H        0.60598979      -0.52080979       0.87809966
H        0.60596979      -0.50002980      -0.89008968
H        5.15567816      -2.11856919      -0.12177995
H        6.77358733      -1.21996952      -0.08322997
H        5.37056801       2.01615917      -0.68484974
H        6.84461706       1.19015949      -0.17494993
H        4.74667796       1.80693934       1.62008930
