13
Properties=species:S:1:pos:R:3 atomization_energy=-1422.05 smiles=C.C.C.C.O.C.O.H.H.H.H.H.H pbc="F F F"
C        0.99924963       0.04750998       0.01394999
C        2.47360912      -0.04757998       0.00927000
C        3.27485876      -1.10939960      -0.05183998
C        4.69006795      -0.69871970      -0.02819999
O        4.64385802       0.72429972       0.05263998
C        3.34478859       1.13150950       0.07609997
O        2.96489883       2.28714919       0.14165995
H        0.53582978      -0.94192962      -0.05644998
H        0.64910973       0.64363976      -0.83478964
H        0.64706976       0.51922978       0.93667962
H        2.94598887      -2.13629925      -0.11077996
H        5.21636787      -1.09374952       0.84532964
H        5.21675797      -0.99233960      -0.94062961
