11
Properties=species:S:1:pos:R:3 atomization_energy=-1214.63 smiles=C.C.C.C.O.C.O.H.H.H.H pbc="F F F"
C        0.99999962       0.00000000       0.00000000
C        2.19015911       0.00000000       0.00000000
C        3.59615871       0.00000000       0.00000000
C        4.37349820      -1.06486957       0.03293999
O        5.71302795      -0.76969972      -0.03653999
C        5.65662788       0.66725973      -0.16443994
O        4.30929807       1.18123957      -0.09993996
H       -0.06498997       0.00549000      -0.00011000
H        4.11527829      -2.10751923       0.09222996
H        6.09407742       0.95185961      -1.12866951
H        6.24747766       1.11840959       0.64063973
