19
Properties=species:S:1:pos:R:3 atomization_energy=-1910.46 smiles=C.C.C.C.C.C.C.H.H.H.H.H.H.H.H.H.H.H.H pbc="F F F"
C        0.74136973      -0.34924986       0.04576998
C        2.25822900      -0.20773993      -0.07151998
C        2.84643889      -1.36763945      -0.87399965
C        2.61072895       1.10818955      -0.72326970
C        3.34219866       2.06013924      -0.12527996
C        3.66815866       3.31182882      -0.76639967
C        4.39868843       4.26396827      -0.17511993
H        0.31624989       0.46688982       0.64086973
H        0.47761982      -1.29200946       0.53694981
H        0.25754990      -0.33593986      -0.93759961
H        2.68115889      -0.24773990       0.94037961
H        2.44499904      -1.39767949      -1.89340922
H        2.61670895      -2.32536904      -0.39429986
H        3.93676856      -1.28326947      -0.94398965
H        2.23689918       1.26432948      -1.73318935
H        3.71577861       1.90236925       0.88417964
H        3.29837881       3.47917869      -1.77542934
H        4.79289798       4.15047825       0.82954967
H        4.61932840       5.19054782      -0.69545970
