17
Properties=species:S:1:pos:R:3 atomization_energy=-1652.25 smiles=C.C.O.C.C.C.O.H.H.H.H.H.H.H.H.H.H pbc="F F F"
C        0.94527963       0.06145998      -0.18595992
C        2.42192915       0.00443000       0.01864999
O        2.80687890      -0.15064994       1.39746942
C        3.30133866      -0.69452974      -0.98333964
C        3.40249876       0.79955965      -0.82457969
C        2.95917873       1.71160934      -1.91902930
O        4.55786807       1.27313950      -0.10067996
H        0.66620972       0.04577998      -1.24330953
H        0.53728976       0.97361959       0.26274991
H        0.46642982      -0.79699969       0.29399988
H        3.52295868       0.48399980       1.59596934
H        2.84037891      -1.08784963      -1.88358924
H        4.10091837      -1.31576948      -0.60160976
H        2.13886924       1.29202952      -2.51014895
H        3.78950854       1.91019922      -2.60487890
H        2.62505909       2.66838891      -1.50365937
H        5.37778771       0.92870961      -0.49735979
