19
Properties=species:S:1:pos:R:3 atomization_energy=-1848.81 smiles=C.C.C.C.O.C.C.H.H.H.H.H.H.H.H.H.H.H.H pbc="F F F"
C        1.05925962       0.16485993       0.14950994
C        2.55122898      -0.04910998      -0.10897995
C        2.76954902      -0.73712969      -1.45685937
C        3.30647864       1.25962956      -0.03660998
O        2.89601896       2.25866906      -0.98156960
C        3.74459863       1.79650935       1.29897948
C        4.76679835       1.27542953       0.32752988
H        0.89739965       0.64153973       1.12199951
H        0.52384978      -0.79006967       0.14797995
H        0.60791974       0.80746968      -0.61380979
H        2.92916873      -0.72373973       0.67108974
H        2.37497913      -0.13685995      -2.28320903
H        2.27158918      -1.71178939      -1.47991942
H        3.83638841      -0.89806965      -1.64323931
H        3.24202870       2.06638924      -1.86971923
H        3.54017851       1.21028946       2.18669914
H        3.68706861       2.86752899       1.45468944
H        5.41025769       1.99840917      -0.15948993
H        5.25445778       0.33702987       0.56342977
