15
Properties=species:S:1:pos:R:3 atomization_energy=-1555.34 smiles=C.C.C.C.C.C.O.H.H.H.H.H.H.H.H pbc="F F F"
C        2.59270896      -1.19612952       0.68571972
C        2.20629922       0.00782000       0.24377991
C        3.04848886       1.18859957       0.09494996
C        2.49045904       2.33318904      -0.34086988
C        4.48113817       1.08716960       0.44470984
C        5.43123803       0.46585980      -0.55249979
O        5.50245802       1.85527932      -0.22356991
H        1.87361926      -2.00702919       0.75647971
H        3.60967862      -1.41814948       0.98812958
H        1.15814950       0.12466995      -0.03234999
H        1.43968949       2.41393908      -0.59400979
H        3.09453881       3.22864883      -0.45781984
H        4.65973824       0.89993962       1.49938942
H        5.06600822       0.20634993      -1.53829940
H        6.21434758      -0.17974992      -0.17675994
