13
Properties=species:S:1:pos:R:3 atomization_energy=-1369.67 smiles=C.C.C.C.O.C.O.H.H.H.H.H.H pbc="F F F"
C        0.99999962       0.00000000       0.00000000
C        2.44399905       0.00000000       0.00000000
C        3.63415853       0.00000000       0.00000000
C        5.08328786       0.00143000      -0.01871999
O        5.67862763      -0.93729965      -0.53527982
C        5.77351781       1.25620946       0.50648980
O        5.15825800       1.90615927       1.60673934
H        0.60605975       1.02088962       0.01287000
H        0.60595976      -0.52147979       0.87769965
H        0.60589977      -0.49926982      -0.89048962
H        5.86192762       1.97295917      -0.31718988
H        6.78407724       0.97380959       0.82072968
H        4.30503821       2.26143915       1.30219948
