13
Properties=species:S:1:pos:R:3 atomization_energy=-1423.74 smiles=C.C.C.C.O.C.C.H.H.H.H.H.H pbc="F F F"
C        0.92138967       0.10617996      -0.04282998
C        2.42084917      -0.00648000      -0.00815000
C        3.09749890      -1.16632957       0.05645998
C        2.46096909      -2.49861893       0.06134998
O        3.13088889      -3.52092867       0.14557995
C        3.18208867       1.20366955      -0.02922999
C        3.81922837       2.22123925      -0.04623998
H        0.59369974       1.11956956       0.21565991
H        0.44970981      -0.56794978       0.67927972
H        0.54491976      -0.12167995      -1.04529958
H        4.18297826      -1.19185957       0.09369996
H        1.36412952      -2.53072909      -0.02216999
H        4.38585839       3.12311885      -0.06143997
