14
Properties=species:S:1:pos:R:3 atomization_energy=-1353.02 smiles=C.N.C.C.N.C.H.H.H.H.H.H.H.H pbc="F F F"
C        0.66566972       1.23740952      -0.19776992
N       -0.78485972       1.37989947       0.02289999
C       -1.39581943       0.05967998      -0.21783991
C       -0.33565987      -0.90564962       0.21040992
N        0.75344972      -1.30159944      -0.68221976
C        0.95234964      -0.16963994       0.22303992
H        0.91660963       1.39240942      -1.25245957
H        1.21264952       1.96302918       0.40973985
H       -1.16699951       2.05968921      -0.63090977
H       -2.30784918      -0.04778998       0.37540986
H       -1.64143930      -0.06869998      -1.27769951
H       -0.59674980      -1.54341933       1.04198956
H        1.22527958      -2.13368914      -0.32439987
H        1.62195933      -0.27605989       1.06382959
