15
Properties=species:S:1:pos:R:3 atomization_energy=-1513.21 smiles=C.C.C.O.C.C.O.H.H.H.H.H.H.H.H pbc="F F F"
C        1.49110942       0.22129991      -0.28897988
C        2.84964880      -0.19335993       0.13185995
C        3.14654882      -1.59552939       0.52444979
O        4.37790845      -1.95361924      -0.13830996
C        5.09044801      -0.73917969      -0.44964982
C        4.08035842       0.34956985      -0.47998982
O        3.62138856       0.82142965       0.79304970
H        1.46519942       1.26903950      -0.60511975
H        0.78433967       0.10122996       0.53786981
H        1.14404961      -0.39119984      -1.12687960
H        2.37324915      -2.29865902       0.20121992
H        3.28750863      -1.69489934       1.60556941
H        5.84995753      -0.56889981       0.32151989
H        5.58544775      -0.86892968      -1.41577946
H        4.05633850       0.98312964      -1.34850946
