16
Properties=species:S:1:pos:R:3 atomization_energy=-1615.99 smiles=N.C.C.C.C.C.C.H.H.H.H.H.H.H.H.H pbc="F F F"
N        1.02916962       0.00810000       0.26475990
C        2.46999901       0.00000000       0.00000000
C        2.75361884      -0.71006974      -1.34594943
C        4.22356827      -0.88173966      -1.64136940
C        4.83430807      -2.06525917      -1.79073929
C        2.95201883       1.36116943       0.00000000
C        3.34929875       2.48306901       0.00000000
H        0.86592965       0.46539980       1.16040950
H        0.70337975      -0.95045961       0.36770985
H        2.95854891      -0.56127978       0.80610967
H        2.30705913      -0.14348995      -2.17399906
H        2.26544920      -1.69384939      -1.34325946
H        4.80986827       0.02806999      -1.75859936
H        4.29779832      -3.00403894      -1.70054928
H        5.89545789      -2.11504917      -2.01548922
H        3.69751866       3.48993860      -0.00370000
