19
Properties=species:S:1:pos:R:3 atomization_energy=-1844.49 smiles=C.C.C.C.C.C.O.H.H.H.H.H.H.H.H.H.H.H.H pbc="F F F"
C        1.12000950      -0.16957993      -0.08000997
C        2.63502895      -0.08387996      -0.16555993
C        3.13903868       1.31278945       0.19514992
C        4.65901809       1.35991950       0.12748995
C        5.31196811       1.39498951      -1.26131955
C        6.00021776       2.65837893      -0.75225972
O        5.14275779       2.70296889       0.41252984
H        0.78226966      -1.17947956      -0.33371988
H        0.64733975       0.53140981      -0.77573971
H        0.76988973       0.06112998       0.93141965
H        2.95506876      -0.34935985      -1.17957949
H        3.07770882      -0.82492967       0.50999979
H        2.81099897       1.56819940       1.21048956
H        2.70021898       2.05702913      -0.48092981
H        5.13067819       0.64702977       0.81670967
H        4.63019832       1.56364936      -2.09928920
H        5.97885741       0.55928977      -1.48508943
H        7.05004700       2.54081906      -0.46707983
H        5.87934756       3.54355849      -1.38216944
