15
Properties=species:S:1:pos:R:3 atomization_energy=-1473.63 smiles=C.C.C.O.C.O.C.H.H.H.H.H.H.H.H pbc="F F F"
C       -1.65011937       0.70569975       0.31712986
C       -1.53839946      -0.70884973      -0.42738982
C       -0.11864995      -0.67319973       0.11544995
O        1.18409950      -0.92091964      -0.43025984
C        1.96331924       0.25337990      -0.00559000
O        1.01359958       1.30234949       0.39432985
C       -0.22520990       0.87360967      -0.18596993
H       -2.39096911       1.38776943      -0.10645996
H       -1.77223925       0.66628977       1.40484948
H       -1.63497937      -0.68522975      -1.51849935
H       -2.18626917      -1.49050938      -0.02319999
H       -0.09919996      -0.94108961       1.18452959
H        2.58350896      -0.01506000       0.85336967
H        2.56271889       0.60785975      -0.84750966
H       -0.21441992       1.14354961      -1.25521957
