13
Properties=species:S:1:pos:R:3 atomization_energy=-1405.33 smiles=C.C.C.C.O.C.O.H.H.H.H.H.H pbc="F F F"
C        1.00152963      -0.03987999      -0.00709000
C        2.46964903       0.11456996       0.00095000
C        3.31090882       1.20917958       0.00445000
C        4.61611824       0.68019972       0.01203999
O        5.78250786       1.33975950       0.01772999
C        4.50831829      -0.68502972       0.01269999
O        3.19497876      -1.04187961       0.00587000
H        0.50414981       0.93490964       0.00132000
H        0.67045973      -0.59909976       0.87342963
H        0.67844974      -0.58001979      -0.90222965
H        3.00531876       2.24470908       0.00177000
H        5.62346802       2.29864918       0.01593000
H        5.22014779      -1.49693941       0.01733999
