17
Properties=species:S:1:pos:R:3 atomization_energy=-1726.64 smiles=C.C.C.C.C.C.O.H.H.H.H.H.H.H.H.H.H pbc="F F F"
C        0.92110964      -0.02772999      -0.02939999
C        2.45407893      -0.04275998      -0.05593998
C        3.00444873       0.04813998       1.36680941
C        3.00044877      -1.27910953      -0.79970967
C        3.40821860      -0.68697973      -2.09541919
C        3.33411876       0.63390974      -1.99621919
O        2.89117874       1.13245953      -0.79047971
H        0.50761981      -0.04721998      -1.04421960
H        0.54986981       0.89200967       0.43686984
H        0.52092980      -0.88435968       0.52328979
H        4.09877835       0.10939996       1.35889945
H        2.70819896      -0.81711971       1.96769920
H        2.64912897       0.95743960       1.86486929
H        2.24571917      -2.06233919      -0.92186966
H        3.87346849      -1.71705932      -0.30228988
H        3.75254857      -1.23746945      -2.95668873
H        3.59687861       1.38028945      -2.72728883
