17
Properties=species:S:1:pos:R:3 atomization_energy=-1705.85 smiles=C.C.C.C.C.C.O.H.H.H.H.H.H.H.H.H.H pbc="F F F"
C        1.08693960       0.00797999      -0.02871999
C        2.58317892       0.07701997       0.00754000
C        3.46603855      -0.63408977      -1.09052952
C        4.54144837      -0.32498988       0.01013999
C        3.42307864      -0.82960966       0.98933964
C        4.51154813       1.20495947       0.15330994
O        3.09282876       1.43147939       0.14601994
H        0.65187976       0.43566982       0.88035966
H        0.73956973      -1.02723960      -0.10964996
H        0.68910973       0.56142979      -0.88549965
H        3.57944858      -0.09905996      -2.03796917
H        3.25560866      -1.68992929      -1.29355953
H        5.49441774      -0.84956969      -0.01966999
H        3.20867883      -1.90393926       0.98275959
H        3.49569857      -0.48130982       2.02367914
H        4.93942826       1.54710942       1.09972951
H        4.97597794       1.71619938      -0.69444975
