15
Properties=species:S:1:pos:R:3 atomization_energy=-1576.38 smiles=C.C.C.C.C.C.O.H.H.H.H.H.H.H.H pbc="F F F"
C        1.63373941      -0.68974970      -1.04258961
C        2.03538921       0.18209993      -0.10735995
C        3.08982879       1.25018947      -0.22695991
C        3.60670868       1.61212939      -1.63101941
C        3.72790843       3.08555884      -1.52204940
C        3.11386889       3.47223858      -0.41131985
O        2.56063892       2.47087914       0.35785985
H        0.85543968      -1.41375942      -0.81748968
H        2.05514914      -0.71755969      -2.04120923
H        1.56263940       0.12728996       0.87247967
H        3.93841856       0.95023965       0.40427984
H        2.90737891       1.36556945      -2.43577911
H        4.56547838       1.12654955      -1.83615929
H        4.18124828       3.73599842      -2.25369915
H        2.95021895       4.47124831      -0.04311998
