17
Properties=species:S:1:pos:R:3 atomization_energy=-1729.11 smiles=C.C.O.C.C.C.C.H.H.H.H.H.H.H.H.H.H pbc="F F F"
C        0.96016964       0.01078000      -0.04990998
C        2.48221891      -0.01386999      -0.00786999
O        2.98431875       0.12613995      -1.32738946
C        3.04594889      -1.28667947       0.64484975
C        3.40087854      -0.89806965       2.08130921
C        3.55003861       0.58567977       1.99905918
C        3.04546870       1.06908956       0.85883965
H        0.51935980      -0.09406996       0.94658961
H        0.57962975      -0.79876967      -0.68236970
H        0.59674980       0.94628965      -0.49025979
H        3.94387850       0.26854988      -1.25731947
H        3.94821835      -1.62810940       0.11982995
H        2.33871914      -2.12322925       0.62312977
H        4.32675838      -1.38311947       2.40265912
H        2.60005887      -1.16053958       2.77974900
H        3.97658845       1.18941952       2.78889879
H        3.00598870       2.11845918       0.59751979
