19
Properties=species:S:1:pos:R:3 atomization_energy=-1850.55 smiles=C.C.C.C.C.C.O.H.H.H.H.H.H.H.H.H.H.H.H pbc="F F F"
C        0.91779963      -0.03188999       0.11560996
C        2.43703900      -0.01785999      -0.03545999
C        2.84306875       0.04600998      -1.50904942
C        3.14609866       1.05066957       0.84892966
C        4.20461844      -0.01161000       1.20329951
C        3.16558873      -1.09580954       0.83754964
O        3.65724861      -2.27114911       0.16877993
H        0.61594975      -0.05413998       1.16828955
H        0.48633979      -0.91221963      -0.37233984
H        0.47198981       0.86021965      -0.33721987
H        3.93052841       0.08127997      -1.63446941
H        2.42860911       0.93974960      -1.98809918
H        2.47298914      -0.82985966      -2.05301921
H        2.56339892       1.38118951       1.71756928
H        3.52630863       1.93678925       0.33234988
H        5.08839807       0.00476000       0.55607980
H        4.53445829      -0.00815999       2.24579916
H        2.57827890      -1.40038940       1.71441930
H        4.27084834      -1.95241928      -0.51382980
