15
Properties=species:S:1:pos:R:3 atomization_energy=-1490.43 smiles=C.O.C.C.C.C.O.H.H.H.H.H.H.H.H pbc="F F F"
C        0.84999966       0.90097967      -0.78563967
O       -0.03934998       1.04025958       0.32719987
C        0.63925973      -0.22031991       0.19357993
C        1.55978932      -0.54434981       1.33555944
C        1.06714964      -0.36272987       2.77878888
C        1.57624940      -1.78024925       2.99560880
O        1.78894925      -1.96543920       1.57651939
H        0.40911984       0.81192969      -1.77083932
H        1.77841934       1.45585938      -0.75431969
H        0.04701998      -1.08018961      -0.09502996
H        2.53338891      -0.05955998       1.17476955
H       -0.01568000      -0.25127990       2.89288879
H        1.58210941       0.41296985       3.35056873
H        2.51414890      -1.86385921       3.55146857
H        0.84044969      -2.48345912       3.39341862
