17
Properties=species:S:1:pos:R:3 atomization_energy=-1687.28 smiles=C.C.C.O.C.C.C.H.H.H.H.H.H.H.H.H.H pbc="F F F"
C       -0.37467984       0.16876993      -0.30916988
C        0.49865981       0.58465978      -1.45670948
C        1.11399960       0.27641990      -0.12035995
O        1.80535924      -0.98328961      -0.02411999
C        3.22310865      -0.76461973       0.09033997
C        4.07964836      -1.90979927      -0.37615986
C        3.99439850      -0.65514972      -1.19452948
H       -0.99779961       0.92103962       0.15752993
H       -0.81103966      -0.82257965      -0.33307988
H        0.46830981       1.62027931      -1.77204924
H        0.64925974      -0.12514995      -2.26139903
H        1.46056939       1.10760957       0.48668981
H        3.58361860      -0.21236992       0.95292962
H        3.58041854      -2.79608897      -0.75004968
H        4.99667818      -2.10706920       0.16436994
H        4.85550793       0.00235000      -1.21156954
H        3.44257855      -0.69402974      -2.12644925
