17
Properties=species:S:1:pos:R:3 atomization_energy=-1728.49 smiles=C.C.C.C.C.C.O.H.H.H.H.H.H.H.H.H.H pbc="F F F"
C        1.00323962      -0.08301997       0.12018995
C        2.49806910       0.00674000       0.10068996
C        3.14892881       1.16219954      -0.11492996
C        4.64158805       1.26351950      -0.11731995
C        5.30036794      -0.04405998       0.30665988
C        4.48882822      -1.22586953      -0.20043992
O        3.14305882      -1.19747949       0.29037988
H        0.67290974      -1.10226961      -0.10311996
H        0.55682980       0.57697977      -0.63101972
H        0.61707975       0.19282992       1.10663960
H        2.59004889       2.07907923      -0.28050987
H        4.96887784       1.53477938      -1.12772958
H        4.96166823       2.06928915       0.55323982
H        6.32865768      -0.08980996      -0.06747997
H        5.34552766      -0.08197996       1.40206942
H        4.94203787      -2.16190911       0.14223995
H        4.46706818      -1.25609944      -1.29706946
