17
Properties=species:S:1:pos:R:3 atomization_energy=-1657.65 smiles=N.C.N.C.C.C.C.H.H.H.H.H.H.H.H.H.H pbc="F F F"
N        1.84455928       0.56952975       2.74851897
C        2.49834893       0.75476972       1.65654940
N        3.57723866       0.01009000       1.31306953
C        4.57517800       0.63690977       0.51278979
C        5.56490799       1.49914946       1.33113948
C        6.68731729       0.91230965       0.44960982
C        5.76628751      -0.30223989       0.20867992
H        1.06602954       1.23598953       2.79610890
H        2.21235921       1.53261943       0.92698965
H        3.90129836      -0.57200979       2.08002913
H        4.17341844       1.12865955      -0.38161986
H        5.65517798       1.22839953       2.39001909
H        5.42606776       2.58083905       1.25310945
H        6.89103743       1.49820939      -0.45389984
H        7.63039678       0.70033972       0.95921961
H        5.79525766      -0.71736969      -0.80246967
H        5.91958783      -1.11455952       0.92937961
