12
Properties=species:S:1:pos:R:3 atomization_energy=-1348.33 smiles=N.C.C.C.C.C.C.H.H.H.H.H pbc="F F F"
N        0.86654963       0.04526998      -0.10866996
C        2.02701925       0.03173999      -0.08152997
C        3.55986868       0.01309999      -0.04406998
C        4.76062835      -0.00485000      -0.01097000
C        6.19226759      -0.03045999       0.03706999
C        6.94042724      -0.75042969      -1.05409957
C        6.96853745       0.74914968      -0.99155958
H        6.62326754      -0.07967996       1.03367960
H        6.38078729      -1.21312958      -1.85946928
H        7.84100708      -1.28803954      -0.77953969
H        7.88884707       1.22719957      -0.67519971
H        6.42789754       1.29825946      -1.75447929
