18
Properties=species:S:1:pos:R:3 atomization_energy=-1751.2 smiles=C.C.C.C.C.C.H.H.H.H.H.H.H.H.H.H.H.H pbc="F F F"
C        1.17927959      -0.67109970      -0.06043998
C        2.69581883      -0.56544981      -0.07516997
C        3.15498880       0.88587966      -0.20780991
C        4.68209832       0.98608961      -0.21063992
C        5.13693803       2.40959898      -0.35751986
C        5.86934767       3.06153867       0.55418978
H        0.87225964      -1.71841939       0.03003999
H        0.74788972      -0.26955990      -0.98359960
H        0.75528971      -0.11920995       0.78532969
H        3.08868876      -1.15827957      -0.90909962
H        3.09425872      -1.00035964       0.84855967
H        2.74713897       1.47787945       0.62114972
H        2.75291887       1.31385946      -1.13499949
H        5.09121812       0.40357984      -1.04547962
H        5.08213824       0.54511980       0.71108973
H        4.85338784       2.92537896      -1.27281955
H        6.18167775       2.58902896       1.48036945
H        6.17330741       4.09054831       0.38927985
