15
Properties=species:S:1:pos:R:3 atomization_energy=-1591.49 smiles=C.C.C.C.C.C.C.H.H.H.H.H.H.H.H pbc="F F F"
C        2.30626908       0.64461975       2.24123903
C        2.99986891       0.20224992       1.36616949
C        3.86152843      -0.33460986       0.30240990
C        4.66628825       0.76392973      -0.39793983
C        5.68286780       1.47375938       0.50084979
C        6.75730742       0.57408975       0.94678965
C        7.63211718      -0.15989994       1.31944948
H        1.69801929       1.04027957       3.02138873
H        3.23284863      -0.83581966      -0.44354984
H        4.52817827      -1.10183951       0.71102974
H        3.97587839       1.51519936      -0.80307968
H        5.18746786       0.32084988      -1.25641953
H        5.18599778       1.92291923       1.36777949
H        6.12758751       2.30208921      -0.06368998
H        8.40522684      -0.81166966       1.65508929
