16
Properties=species:S:1:pos:R:3 atomization_energy=-1503.98 smiles=C.C.N.C.C.N.H.H.H.H.H.H.H.H.H.H pbc="F F F"
C        0.72348973       1.19872954      -0.23653991
C       -0.74938971       1.20602948       0.22890992
N       -1.48522948       0.00118000      -0.18177992
C       -0.75007971      -1.20835951       0.21351992
C        0.72210973      -1.19614957      -0.25175990
N        1.45783942      -0.00195000       0.20358993
H        0.77013973       1.27143954      -1.33049944
H        1.23144946       2.08483919       0.15951994
H       -1.25259948       2.08525920      -0.18742992
H       -0.78690966       1.30013945       1.32140946
H       -2.40732901      -0.00057000       0.25044991
H       -0.78812968      -1.31616943       1.30477944
H       -1.25431950      -2.08162916      -0.21391991
H        1.22958952      -2.08747921       0.13333994
H        0.76910971      -1.25517944      -1.34636944
H        1.46617947      -0.00819999       1.22320958
