19
Properties=species:S:1:pos:R:3 atomization_energy=-1863.9 smiles=C.C.C.O.C.C.C.H.H.H.H.H.H.H.H.H.H.H.H pbc="F F F"
C        1.01156958       0.02971999      -0.06925997
C        2.52166888      -0.05244998       0.05666998
C        3.11408868       1.04350961       0.91825962
O        4.40281808       0.55469980       1.30333951
C        4.30855823      -0.87376965       1.43217948
C        5.55147791      -1.50643943       0.83098966
C        3.01296869      -1.30904952       0.75071968
H        0.62791977      -0.79563969      -0.67720972
H        0.71225973       0.97033960      -0.54220978
H        0.52484980      -0.02139999       0.91146964
H        2.97515887      -0.00555000      -0.94196962
H        2.52946895       1.22256954       1.82740933
H        3.22662867       1.98875927       0.37980986
H        4.26636844      -1.11056954       2.50038903
H        5.65485803      -1.24825951      -0.22647990
H        5.52650771      -2.59657897       0.92718963
H        6.44991748      -1.13302954       1.33693944
H        3.14827880      -2.14195904       0.05346998
H        2.29875920      -1.64483934       1.51264943
