13
Properties=species:S:1:pos:R:3 atomization_energy=-1401.23 smiles=C.C.C.C.C.C.O.H.H.H.H.H.H pbc="F F F"
C        0.91844963       0.08035997      -0.02601999
C        2.25367921       0.02306999      -0.04774998
C        3.04903869       1.19885949      -0.02677999
C        3.72884861       2.18867918      -0.00727000
C        4.54713844       3.35993855       0.02077999
C        4.72469789       4.17272831      -1.23320947
O        3.81400840       4.57301804      -0.20261992
H        0.32494986      -0.82809965      -0.04121998
H        0.38790985       1.02764957       0.00812999
H        2.76001897      -0.93699963      -0.08086997
H        5.33851790       3.39158871       0.76034971
H        4.30144855       3.80915859      -2.16130906
H        5.63563795       4.74649830      -1.34611951
