17
Properties=species:S:1:pos:R:3 atomization_energy=-1720.62 smiles=C.C.O.C.C.C.C.H.H.H.H.H.H.H.H.H.H pbc="F F F"
C        1.02103957       0.08045997       0.08280997
C        2.53448908      -0.03563999       0.01767999
O        3.11677878       1.04594958       0.77121970
C        4.43322804       0.60728974       1.13034953
C        4.29274816      -0.86399963       1.47310938
C        3.12689878      -1.27339953       0.63023977
C        2.68778890      -2.53309898       0.51078981
H        0.53117982      -0.68605973      -0.52530980
H        0.70013975       1.06395954      -0.27784990
H        0.66126977      -0.00762000       1.11406950
H        2.87611885       0.06650998      -1.01964960
H        5.10073808       0.76389970       0.27488989
H        4.80120826       1.19880952       1.97367920
H        5.21034775      -1.41745948       1.25323952
H        4.04152842      -0.98130963       2.53313910
H        1.82144927      -2.77977903      -0.09450996
H        3.18325873      -3.35175873       1.02417958
