13
Properties=species:S:1:pos:R:3 atomization_energy=-1376.47 smiles=C.C.C.C.O.C.O.H.H.H.H.H.H pbc="F F F"
C        1.20517950      -0.17443993      -0.59737974
C        2.49837896       0.00910999      -0.30474989
C        3.15652877       1.28331955      -0.26020989
C        4.42053830       1.53929940       0.01904999
O        4.73482798       2.87568888      -0.02403999
C        3.45147853       3.43513856      -0.38000986
O        2.42868911       2.42957908      -0.53538978
H        0.77630967      -1.17084958      -0.61171979
H        0.54599980       0.65691976      -0.82832965
H        3.11083890      -0.86192964      -0.08145997
H        5.22447779       0.87110963       0.27013988
H        3.55521872       3.98203856      -1.32401945
H        3.14232883       4.13487837       0.40471985
