13
Properties=species:S:1:pos:R:3 atomization_energy=-1402.03 smiles=N.C.C.C.C.C.N.H.H.H.H.H.H pbc="F F F"
N        0.88859966       0.16441993      -0.14919994
C        2.27034922       0.05404998      -0.17057994
C        2.83024881      -1.28415944      -0.35732986
C        2.16523912      -2.35534903      -0.81431971
C        3.05351883       1.13798949       0.00000000
C        4.45951843       1.13798949       0.00000000
N        5.61052796       1.13798949       0.00000000
H        0.53843977       1.01402962       0.28431989
H        0.43361982      -0.66328974       0.23019991
H        3.88556853      -1.42537940      -0.12500995
H        1.12415959      -2.31500908      -1.11546956
H        2.67477895      -3.30714858      -0.93037966
H        2.59181899       2.10970922       0.13362995
