17
Properties=species:S:1:pos:R:3 atomization_energy=-1663.43 smiles=C.C.O.C.O.C.C.H.H.H.H.H.H.H.H.H.H pbc="F F F"
C        1.07135953       0.00370000      -0.02910999
C        2.58668910       0.01815999      -0.02237999
O        3.06662870       1.06691963       0.82423967
C        4.37361831       0.63293978       1.21035948
O        4.53480802      -0.76236969       0.93494963
C        3.22176877      -1.21534946       0.58863975
C        3.31406876      -2.39992914      -0.35191988
H        0.68088972      -0.80290967      -0.65578976
H        0.68481971       0.95720960      -0.40607985
H        0.67410976      -0.11356995       0.98479963
H        2.96971886       0.20971992      -1.03249957
H        5.12495784       1.19441947       0.64592972
H        4.51486830       0.81660968       2.27905919
H        2.71892884      -1.50626936       1.51917938
H        3.90124840      -2.14907907      -1.24320948
H        2.32422901      -2.74196896      -0.66719974
H        3.83200845      -3.23242876       0.13622994
