15
Properties=species:S:1:pos:R:3 atomization_energy=-1557.98 smiles=C.C.C.C.O.C.C.H.H.H.H.H.H.H.H pbc="F F F"
C        0.98597959      -0.01683999       0.01763999
C        2.51999896       0.00000000       0.00000000
C        3.05824878      -0.74228973       1.23067947
C        2.96763889      -0.77337972      -1.23870953
O        3.49395874      -0.28984989      -2.23729912
C        3.00201878       1.36116943       0.00000000
C        3.39929870       2.48306901       0.00000000
H        0.57361979       0.48538980      -0.86572968
H        0.58945976       0.49386980       0.90275967
H        0.59746976      -1.04153959       0.01793999
H        2.75112883      -0.25127990       2.16161918
H        4.15449839      -0.78011968       1.22328957
H        2.69924902      -1.77756924       1.26376956
H        2.74700902      -1.85579925      -1.21547954
H        3.75985861       3.48592856      -0.01371999
