19
Properties=species:S:1:pos:R:3 atomization_energy=-1782.57 smiles=N.C.C.C.C.C.N.H.H.H.H.H.H.H.H.H.H.H.H pbc="F F F"
N        2.01101918       2.05037920       2.51196902
C        3.31829859       2.05177913       1.86371929
C        3.15197874       2.08117913       0.34495986
C        4.48983805       2.04972919      -0.39772986
C        5.31140793       3.28225863      -0.15837994
C        6.49717761       3.25211866       0.77345971
N        6.67966761       3.31163882      -0.67308972
H        2.13330912       1.98772926       3.52203868
H        1.49110942       1.21768958       2.23647905
H        3.87735843       1.16041960       2.16892921
H        3.87383841       2.93003876       2.20716901
H        2.58944909       2.97606878       0.05043998
H        2.56135908       1.21351956       0.02553999
H        4.28400842       1.97701918      -1.47323945
H        5.04484822       1.14411950      -0.12179995
H        4.74704788       4.20133839      -0.27002989
H        6.77636751       2.31691897       1.24156946
H        6.74142720       4.14595849       1.33259947
H        6.93340738       4.25573823      -0.97164963
