13
Properties=species:S:1:pos:R:3 atomization_energy=-1168.84 smiles=C.C.N.C.H.H.H.H.H.H.H.H.H pbc="F F F"
C        0.98958963      -0.05938998       0.00448000
C        2.50977904      -0.01177999      -0.01020999
N        2.96232883       1.37830940       0.00612000
C        4.41692845       1.45514944       0.00907000
H        0.64537977      -1.09825956      -0.01758000
H        0.56855979       0.45409981      -0.86644964
H        0.58649979       0.40980984       0.90819962
H        2.87237880      -0.51753980      -0.91247966
H        2.89452894      -0.55240977       0.86234964
H        2.59819893       1.84607932       0.83584969
H        4.83985835       0.98966962      -0.88698966
H        4.84253810       0.97639965       0.89687966
H        4.72623812       2.50487901       0.01158000
