14
Properties=species:S:1:pos:R:3 atomization_energy=-1363.99 smiles=C.C.N.N.C.C.H.H.H.H.H.H.H.H pbc="F F F"
C        0.42426984       1.41812942       0.26510991
C        1.37103949       0.32922987      -0.20712991
N        0.92194965      -0.92476964       0.38563984
N       -0.34482987      -1.35816946       0.18290993
C       -1.25188955      -0.44393981       0.01235000
C       -1.01146959       1.04289959      -0.05660998
H        0.67817974       2.37833918      -0.19830993
H        0.53054981       1.55239943       1.34953948
H        2.39114902       0.55111979       0.11991996
H        1.37538942       0.25502989      -1.30057952
H        1.58961942      -1.67716928       0.20418992
H       -2.29148903      -0.77726972      -0.14098995
H       -1.27020956       1.36047942      -1.07329958
H       -1.70746934       1.54341933       0.62453973
