17
Properties=species:S:1:pos:R:3 atomization_energy=-1696.92 smiles=C.C.C.C.C.O.C.H.H.H.H.H.H.H.H.H.H pbc="F F F"
C        0.82838970       0.33767988       0.47251980
C        2.28033902       0.04909998       0.23645991
C        2.76443880      -1.20397954       0.23014990
C        3.24497870       1.17017951       0.01670000
C        2.72317886       2.59729887      -0.21303992
O        3.62535848       3.12311885       0.79625967
C        3.86658842       1.77766929       1.28389954
H        0.70289976       0.98912963       1.34327952
H        0.25548989      -0.57659976       0.66190974
H        0.38753984       0.82606970      -0.40224984
H        2.11740923      -2.06249917       0.38940983
H        3.81759857      -1.41408947       0.06538997
H        4.00459848       0.90937965      -0.73403970
H        1.68610938       2.82253883       0.05012998
H        2.94037879       3.01215871      -1.20196947
H        4.93374828       1.57939938       1.41866941
H        3.33806875       1.60456941       2.22730908
