13
Properties=species:S:1:pos:R:3 atomization_energy=-1387.21 smiles=C.C.C.C.O.C.O.H.H.H.H.H.H pbc="F F F"
C        0.85773968      -0.04622998      -0.08678997
C        2.31221905      -0.30580987       0.14527994
C        2.79585884      -1.55347940       0.28078990
C        3.29282878       0.82256968       0.24588990
O        4.48764832       0.64491977       0.47190982
C        2.85834893       2.26455923       0.08007996
O        1.72161932       2.60645900      -0.19756992
H        0.44195984       0.57984978       0.70887975
H        0.27714990      -0.97581960      -0.09653996
H        0.69896970       0.43921984      -1.05474957
H        2.14803922      -2.42290895       0.22314992
H        3.85208846      -1.74754926       0.45291981
H        3.67760846       2.98595890       0.23113991
