15
Properties=species:S:1:pos:R:3 atomization_energy=-1598.57 smiles=C.C.C.C.C.C.C.H.H.H.H.H.H.H.H pbc="F F F"
C        1.83055931      -1.00110963      -0.62248973
C        2.68440892      -0.44549982       0.24970990
C        3.08586870       1.00819963       0.25269990
C        2.70856888       1.66391937       1.55708938
C        1.86441926       2.69926896       1.67633936
C        4.54632846       1.10402962       0.06598998
C        5.73462750       1.18215957      -0.09593996
H        1.59087944      -2.05820916      -0.56630975
H        1.35734951      -0.41977983      -1.40801939
H        3.13102868      -1.07974955       1.01374959
H        2.59490904       1.52993942      -0.57958976
H        3.16295868       1.25900946       2.46015910
H        1.38302951       3.14644864       0.81198968
H        1.63986930       3.12209868       2.65058896
H        6.78782738       1.24942945      -0.24221990
