15
Properties=species:S:1:pos:R:3 atomization_energy=-1526.57 smiles=C.C.C.O.C.C.O.H.H.H.H.H.H.H.H pbc="F F F"
C        1.00790957       0.03720999       0.08989996
C        2.48520903       0.04500998      -0.04833998
C        3.30076864      -0.99014962      -0.21946992
O        4.64535839      -0.70531973      -0.30274988
C        4.69969792       0.74108971      -0.28707989
C        3.29942876       1.28087951       0.03372999
O        2.86961880       2.23405919      -0.92547964
H        0.60790978      -0.98056961       0.05063998
H        0.54511980       0.61035979      -0.71883971
H        0.71040970       0.48084983       1.04483958
H        3.05786877      -2.03816914      -0.28631990
H        5.06451795       1.08188957      -1.26310946
H        5.42650783       1.04690958       0.47476981
H        3.26178876       1.73300930       1.02964961
H        2.73669902       1.75814932      -1.76447930
