15
Properties=species:S:1:pos:R:3 atomization_energy=-1527.51 smiles=C.C.O.C.C.O.C.H.H.H.H.H.H.H.H pbc="F F F"
C        0.95903963      -0.01741999       0.12479995
C        2.47500905       0.00430000      -0.02501999
O        2.78509893       0.04729998      -1.43831945
C        3.17496864       1.09861951       0.84055964
C        4.12564835      -0.01220000       1.32095943
O        5.20918803      -0.01411000       1.86299927
C        3.20140866      -1.11727953       0.78016970
H        0.65599976      -0.04908998       1.17630953
H        0.53233979      -0.89502963      -0.37318986
H        0.51102981       0.87557968      -0.32576987
H        3.75516853       0.05956998      -1.51190947
H        2.57480909       1.52829939       1.64771932
H        3.66879857       1.89529931       0.28086989
H        3.71392852      -1.87069928       0.17772993
H        2.61230905      -1.60473936       1.56195937
