19
Properties=species:S:1:pos:R:3 atomization_energy=-1850.01 smiles=C.C.C.C.C.C.O.H.H.H.H.H.H.H.H.H.H.H.H pbc="F F F"
C        0.98160959      -0.33454986       0.26299990
C        2.49346910      -0.31436986       0.09545996
C        3.01811877       1.11303961      -0.06110997
C        4.51237830       1.13191954      -0.22314992
C        5.14155821       1.63088933      -1.29907953
C        6.62391754       1.67110929      -1.46769939
O        6.96124709       0.93238961      -2.63008906
H        0.62701977      -1.36322945       0.37936986
H        0.48509981       0.09934996      -0.61033979
H        0.67794974       0.23205991       1.14860961
H        2.76537899      -0.91430963      -0.78189968
H        2.95634884      -0.79243969       0.96782960
H        2.75848883       1.70288928       0.82534968
H        2.52983912       1.59305933      -0.91772966
H        5.09385801       0.72378969       0.60300975
H        4.56276835       2.05009924      -2.11885913
H        7.15710711       1.24204951      -0.61355979
H        6.96203739       2.70333906      -1.60218943
H        6.55322745       0.05545998      -2.53011895
