15
Properties=species:S:1:pos:R:3 atomization_energy=-1507.42 smiles=N.C.N.C.C.C.C.H.H.H.H.H.H.H.H pbc="F F F"
N        2.65159904       2.01386926       2.27974906
C        2.22390917       2.03759925       1.06835957
N        2.93478890       1.68207939      -0.03449999
C        4.37399832       1.45678947       0.00844999
C        5.16222818       2.76889901       0.03386998
C        5.00782820       3.53291869      -1.21926956
C        4.88481822       4.16233832      -2.23492923
H        1.90401924       2.32350911       2.91011897
H        1.19583959       2.36030910       0.83110964
H        2.59320909       2.02649920      -0.92591965
H        4.65521798       0.86597968      -0.87149968
H        4.63296842       0.85236969       0.88586962
H        6.22416730       2.53900908       0.17845993
H        4.85070808       3.38885874       0.88172963
H        4.78072805       4.72851819      -3.13234888
