15
Properties=species:S:1:pos:R:3 atomization_energy=-1576.45 smiles=C.C.C.C.C.O.C.H.H.H.H.H.H.H.H pbc="F F F"
C        0.87608965       0.33105987       0.69537971
C        2.00774922       0.19829993      -0.00662000
C        3.09013891       1.21699958       0.00353000
C        2.69323900       2.68463904      -0.32896987
C        3.62611850       3.09820871       0.82952967
O        4.15892832       4.13706836       1.15492950
C        3.64140852       1.65988939       1.38996950
H        0.11267996      -0.44167981       0.65588975
H        0.66754972       1.19214949       1.32250950
H        2.15980921      -0.68876971      -0.61800978
H        3.90897857       0.87880965      -0.64967975
H        1.65268936       2.97241881      -0.15368994
H        3.01277893       3.03809886      -1.31228945
H        4.63735797       1.28213952       1.63323942
H        2.97973893       1.53796936       2.25226918
