18
Properties=species:S:1:pos:R:3 atomization_energy=-1778.48 smiles=N.C.C.C.C.C.C.H.H.H.H.H.H.H.H.H.H.H pbc="F F F"
N        0.84612966       0.27370990       0.21889992
C        2.27753915      -0.03718998       0.18954993
C        3.11766875       1.23427948       0.01016000
C        4.60627833       0.94348966      -0.02009999
C        5.25393797       0.85885965      -1.19525948
C        5.35717780       0.78861971       1.21859949
C        4.87023802       0.86030967       2.46439902
H        0.31802986      -0.59689974       0.27619990
H        0.57510981       0.71306971      -0.66044975
H        2.47101894      -0.73503969      -0.63373973
H        2.54055891      -0.54916977       1.12107951
H        2.88681896       1.96619922       0.79409971
H        2.82139880       1.72251926      -0.92903966
H        4.73084821       0.97946963      -2.13857907
H        6.32073750       0.66494976      -1.25652954
H        6.42568762       0.60020976       1.11481955
H        3.82467847       1.04597961       2.68346898
H        5.53106785       0.73275969       3.31641873
