15
Properties=species:S:1:pos:R:3 atomization_energy=-1578.53 smiles=C.C.C.O.C.C.C.H.H.H.H.H.H.H.H pbc="F F F"
C        0.84266969      -1.12666953       0.91097961
C        1.09269957      -0.38335984      -0.37547985
C        0.88944964       1.09767957      -0.51767981
O       -0.33441988       1.62432935       0.03878999
C       -1.43452944       0.81024967      -0.01817999
C       -1.38676944      -0.51925978      -0.16267993
C       -0.12701995      -1.25162952      -0.24182991
H        1.47016946      -1.98194923       1.13445951
H        0.54986981      -0.55935979       1.78789930
H        1.90738925      -0.73348968      -0.99822958
H        1.71981932       1.63109940      -0.04332999
H        0.89889963       1.36139942      -1.58215937
H       -2.34762920       1.37004947       0.13148995
H       -2.31201921      -1.08813956      -0.17213993
H       -0.14889995      -2.18388918      -0.79355966
