17
Properties=species:S:1:pos:R:3 atomization_energy=-1647.08 smiles=C.C.C.O.C.C.O.H.H.H.H.H.H.H.H.H.H pbc="F F F"
C        3.04959886      -1.19351953      -0.46163981
C        2.37902905       0.03135999       0.14055994
C        3.30679860       1.21005946       0.19171992
O        4.45648844       1.04388961       1.04420957
C        3.52123853       2.06081915      -1.02942958
C        2.75220881       2.61371907       0.13860995
O        3.44840867       3.58595847       0.93806964
H        2.34875914      -2.03320919      -0.49318980
H        3.91924845      -1.49773943       0.12845995
H        3.38984864      -0.99241959      -1.48205944
H        2.03784918      -0.20208993       1.15629953
H        1.48337938       0.27092990      -0.44652984
H        4.18022836       0.84433969       1.95660925
H        2.96631895       1.82459924      -1.92976927
H        4.51813801       2.44063901      -1.21716953
H        1.68273937       2.74481904       0.01372999
H        4.34959839       3.26594869       1.13468950
