15
Properties=species:S:1:pos:R:3 atomization_energy=-1602.58 smiles=C.C.C.C.C.C.O.H.H.H.H.H.H.H.H pbc="F F F"
C        2.43492900      -0.50178981      -1.40892942
C        2.49589905       0.06047998       0.00214000
C        2.89738886       1.48814945       0.00290000
C        2.19071903       2.67276887       0.01335999
C        3.15443871       3.70964847       0.00648000
C        4.38224804       3.09250880      -0.00746000
O        4.23649848       1.74290927      -0.00925999
H        2.13642920      -1.55443940      -1.38508942
H        3.40940860      -0.43551984      -1.90385927
H        1.70955928       0.04379998      -2.02129915
H        3.20535866      -0.52433978       0.59963975
H        1.51461938      -0.04618998       0.47946982
H        1.11493954       2.77282882       0.02408999
H        2.97685882       4.77574804       0.01095000
H        5.40293807       3.45119869      -0.01641999
