17
Properties=species:S:1:pos:R:3 atomization_energy=-1718.08 smiles=C.C.C.C.C.C.O.H.H.H.H.H.H.H.H.H.H pbc="F F F"
C        2.51638910      -0.44833981      -1.38164951
C        2.48389893       0.13516994       0.02415999
C        2.85751876       1.60276941       0.07423997
C        1.97887924       2.52686892       0.50102979
C        4.24648828       1.99344923      -0.37138985
C        5.27973784       1.38793950       0.54859976
O        6.08778781       0.53358977       0.19289993
H        2.13986924      -1.47645945      -1.36944942
H        3.53549853      -0.47629982      -1.78019929
H        1.89305924       0.13322994      -2.06865921
H        3.15643869      -0.43716983       0.67380974
H        1.47516940      -0.01137999       0.43105982
H        0.97626964       2.25434915       0.81978968
H        2.22808904       3.58354871       0.53757976
H        4.39088837       3.07973882      -0.35054987
H        4.43430801       1.66484933      -1.39827940
H        5.27707776       1.76627931       1.58544939
