15
Properties=species:S:1:pos:R:3 atomization_energy=-1545.09 smiles=C.C.O.C.C.C.C.H.H.H.H.H.H.H.H pbc="F F F"
C        1.00707960       0.07368997       0.10649996
C        2.50870890      -0.07836997      -0.02356999
O        3.20746865       0.96496961       0.71710972
C        4.13435832      -0.03032999       1.23072956
C        3.17719874      -1.16684950       0.84300965
C        3.75586850      -2.28944918       0.13478995
C        4.23060831      -3.22398878      -0.44867983
H        0.49423981      -0.77619971      -0.35487984
H        0.66676977       0.98459959      -0.39624984
H        0.69601975       0.12983995       1.15480952
H        2.82672879      -0.06339998      -1.07479956
H        5.09078815       0.01679999       0.69888970
H        4.30436852       0.08925997       2.30449898
H        2.55616888      -1.48417940       1.69051937
H        4.65283799      -4.05504834      -0.96736959
