17
Properties=species:S:1:pos:R:3 atomization_energy=-1708.98 smiles=C.C.C.C.O.C.C.H.H.H.H.H.H.H.H.H.H pbc="F F F"
C        0.91722967      -0.28288990      -0.12179995
C        2.38026901       0.02485999      -0.19279992
C        2.99265880       1.20053951       0.06706997
C        2.24322916       2.46735912       0.42140982
O        2.30232918       2.70012890       1.82404929
C        4.45172846       1.25195945      -0.03235999
C        5.23827779       2.28846913       0.28556988
H        0.76717969      -1.19670950       0.46296982
H        0.52306979      -0.45491982      -1.12810959
H        0.32697987       0.50209981       0.35490988
H        2.98676889      -0.83829970      -0.46945981
H        1.18980950       2.42528894       0.13238995
H        2.65547889       3.33921862      -0.09767996
H        2.32310917       1.82654926       2.25104916
H        4.94695782       0.35045986      -0.39249985
H        4.85447791       3.22551866       0.67434973
H        6.31607745       2.21167918       0.17551994
