17
Properties=species:S:1:pos:R:3 atomization_energy=-1614.97 smiles=C.C.C.C.N.C.H.H.H.H.H.H.H.H.H.H.H pbc="F F F"
C        0.89984966      -0.01895999       0.10683996
C        2.41720904      -0.00540000      -0.03514998
C        2.84764882       0.02066999      -1.50253940
C        3.13709876       1.02901961       0.86617965
N        4.12284848      -0.01059000       1.23356954
C        3.15755879      -1.05623959       0.83002967
H        0.59222979      -0.03896999       1.15797956
H        0.46971981      -0.89981964      -0.38128985
H        0.45775981       0.87253966      -0.35060987
H        3.93781851       0.03399999      -1.60988932
H        2.45433908       0.90912965      -2.00656919
H        2.47429899      -0.86272965      -2.03151920
H        2.55434906       1.38392945       1.72525933
H        3.56121866       1.90087923       0.35922985
H        4.95761781       0.00797999       0.64691975
H        3.59956846      -1.90121925       0.29311988
H        2.58194905      -1.45246943       1.67531932
