15
Properties=species:S:1:pos:R:3 atomization_energy=-1610.53 smiles=C.C.C.C.O.C.C.H.H.H.H.H.H.H.H pbc="F F F"
C        1.02568959       0.02447999       0.09620997
C        2.50919892      -0.02555999      -0.02047000
C        3.24819870      -1.13864959      -0.09719996
C        4.64299808      -0.69418972      -0.20675992
O        5.58117780      -1.47222937      -0.27989990
C        4.75221815       0.80203970      -0.22995991
C        3.30366868       1.24536957      -0.05654998
H        0.58624979      -0.97826961       0.10164996
H        0.59674980       0.57470980      -0.74738973
H        0.73298969       0.52638978       1.02349961
H        2.94405879      -2.16993905      -0.08975997
H        5.15973817       1.12990959      -1.18998954
H        5.38245785       1.15063949       0.59245979
H        2.99170877       1.88604922      -0.88752965
H        3.17952877       1.80860927       0.87510965
