21
Properties=species:S:1:pos:R:3 atomization_energy=-1983.72 smiles=C.C.C.C.C.O.C.H.H.H.H.H.H.H.H.H.H.H.H.H.H pbc="F F F"
C        1.33406943      -1.24389948      -0.00806000
C        0.77089968       0.17080994      -0.06755997
C        1.23195954       1.02641959       1.12276950
C        0.81545968       2.49973902       0.95814960
C       -0.69108970       2.72570899       0.92269965
O        0.67498971       0.45480980       2.31200911
C        1.34082951       0.85194968       3.50279867
H        0.99651959      -1.82051930      -0.87567967
H        1.00170961      -1.76901925       0.89361967
H        2.42900906      -1.23074949      -0.01502000
H       -0.32201988       0.09161996      -0.07784997
H        1.08360958       0.63716973      -1.00818960
H        2.32768898       0.97683959       1.17633955
H        1.26068948       2.90525882       0.04128998
H        1.22358947       3.08828881       1.78769933
H       -1.13861956       2.28320903       0.02935999
H       -0.90637962       3.79921850       0.90116967
H       -1.18100958       2.30259918       1.80400927
H        0.91714962       0.28364989       4.33509843
H        1.18522956       1.91482924       3.70253854
H        2.41093912       0.62937976       3.44268857
