15
Properties=species:S:1:pos:R:3 atomization_energy=-1570.44 smiles=C.C.C.C.C.O.C.H.H.H.H.H.H.H.H pbc="F F F"
C        1.00178960       0.00145000      -0.04085998
C        2.52083897       0.11578995      -0.03891998
C        2.97082887       1.44943944       0.53395981
C        3.81102862       1.24337955       1.56269933
C        4.06442850      -0.18043992       1.83029928
O        4.58067831      -1.06235963       0.82045969
C        3.15894863      -0.92484963       0.86884963
H        0.69058971      -0.97378959      -0.43011982
H        0.55022975       0.77698970      -0.66845975
H        0.58853976       0.09867996       0.96947959
H        2.90300879       0.00418000      -1.06046954
H        2.67013883       2.41309907       0.15065995
H        4.28650851       2.03053915       2.13228920
H        4.09606831      -0.49788982       2.86436880
H        2.54965898      -1.74715928       1.20520953
