15
Properties=species:S:1:pos:R:3 atomization_energy=-1614.51 smiles=C.C.C.C.C.C.C.H.H.H.H.H.H.H.H pbc="F F F"
C        1.53056936      -0.51632980       0.77074967
C        2.88426890      -0.29523987       0.15095994
C        3.49446871      -1.27990955      -0.52983981
C        3.53300853       1.00340963       0.28165988
C        3.05549887       2.06308925       0.95226965
C        3.75661843       3.28113878       0.99235960
C        4.35011820       4.31220846       1.02629961
H        0.79652966       0.18483993       0.35923984
H        1.57474941      -0.38597986       1.85740925
H        1.15351960      -1.52758946       0.58012974
H        3.03384885      -2.25624920      -0.64753972
H        4.46920846      -1.14788958      -0.99003960
H        4.49392834       1.10738953      -0.22356991
H        2.10656920       2.02247918       1.47597939
H        4.88205823       5.23448778       1.05605962
