18
Properties=species:S:1:pos:R:3 atomization_energy=-1748.56 smiles=C.C.C.C.C.C.H.H.H.H.H.H.H.H.H.H.H.H pbc="F F F"
C        2.31628915      -0.45559982      -1.45629944
C        2.47335905       0.04251998      -0.02915999
C        3.25337881       1.34815948      -0.00171000
C        2.52961908       2.62715899      -0.50547981
C        3.25644867       3.39277871       0.61781977
C        3.34034856       2.05409919       1.37844945
H        1.77276927      -1.40552939      -1.47063943
H        3.29244877      -0.61251974      -1.92750927
H        1.76135935       0.26390990      -2.06744915
H        3.00281892      -0.71529969       0.55902981
H        1.48330936       0.16990993       0.42294983
H        4.24891822       1.22984955      -0.45542981
H        1.43974942       2.60861895      -0.38903985
H        2.77298880       2.93959884      -1.52427938
H        4.23272840       3.79318854       0.31993989
H        2.68030904       4.18263837       1.10645957
H        4.26320825       1.88596923       1.93980928
H        2.48433900       1.87165928       2.03863923
