17
Properties=species:S:1:pos:R:3 atomization_energy=-1730.64 smiles=C.C.C.C.C.C.O.H.H.H.H.H.H.H.H.H.H pbc="F F F"
C        0.83871970      -0.12014996       0.11607995
C        2.32632917       0.01360999       0.00337000
C        3.03693890       1.15462961      -0.09743996
C        2.46203897       2.54399894      -0.07066997
C        4.54153820       1.12455954      -0.23586991
C        5.26555783      -0.19741992      -0.28660989
O        5.17072821       2.18114911      -0.31141989
H        0.49089980      -0.89167968      -0.57926980
H        0.29591987       0.79515969      -0.12524995
H        0.56862975      -0.43153982       1.12945956
H        2.83161897      -0.94894960      -0.00144000
H        1.39248941       2.56623891       0.15013993
H        2.61158889       3.03465883      -1.03815962
H        2.95071882       3.14576886       0.70359972
H        4.92330782      -0.78432970      -1.14266961
H        5.12016809      -0.74477968       0.64826972
H        6.33800756      -0.01562999      -0.40969985
