15
Properties=species:S:1:pos:R:3 atomization_energy=-1534.63 smiles=C.C.C.C.C.O.C.H.H.H.H.H.H.H.H pbc="F F F"
C       -1.04440961       0.00022000      -1.19151955
C       -0.53841977       1.01624963      -0.06373997
C       -1.35089941       0.00015000       0.86882963
C       -0.53771980      -1.01626963      -0.06380997
C        0.96071959      -0.78200970       0.19697992
O        1.69674931       0.00053000      -0.73295972
C        0.96209959       0.78170968       0.19678993
H       -2.11671910       0.00014000      -1.41721939
H       -0.48575981       0.00013000      -2.13147922
H       -0.88527968       2.04810922      -0.11525996
H       -1.07797957      -0.00003000       1.92801923
H       -2.44250903       0.00005000       0.77719970
H       -0.88525968      -2.04796918      -0.11541995
H        1.38653944      -1.29191951       1.04693960
H        1.38636950       1.29203949       1.04698957
