17
Properties=species:S:1:pos:R:3 atomization_energy=-1647.58 smiles=C.C.C.C.O.C.O.H.H.H.H.H.H.H.H.H.H pbc="F F F"
C        1.04634959       0.07847997      -0.09269997
C        2.53440909      -0.00360000      -0.06418997
C        3.28468883      -0.70091971      -1.17115957
C        3.39209868       0.79573967      -1.01408961
O        2.71273890       1.59284939      -2.00457918
C        4.67258796       1.41480950      -0.52577980
O        5.45277803       1.80872925      -1.64986931
H        0.71025975       0.98499960       0.41949983
H        0.61521975      -0.78392969       0.42527983
H        0.64574975       0.09099997      -1.11091952
H        2.89798891      -0.13674995       0.94952965
H        2.72696888      -1.10075953      -2.00917918
H        4.14295827      -1.30618947      -0.89922962
H        2.17408914       1.04719957      -2.60325894
H        5.26417808       0.72260973       0.08077996
H        4.45911824       2.30547903       0.07339997
H        4.81556793       2.23726910      -2.25275921
