13
Properties=species:S:1:pos:R:3 atomization_energy=-1464.9 smiles=C.C.C.C.C.C.O.H.H.H.H.H.H pbc="F F F"
C        1.05977954       0.02356999       0.21674991
C        2.37018913      -0.04055998      -0.03331999
C        3.25070864      -1.23801953      -0.16790994
C        4.59568799      -0.65475975      -0.47089980
C        4.60109797       0.68350974      -0.51502980
C        3.23120873       1.15356956      -0.24355991
O        2.88604884       2.31835903      -0.20347992
H        0.55227976       0.98281958       0.28199989
H        0.46623982      -0.87269964       0.35943985
H        2.92225889      -1.88479930      -0.98734962
H        3.28705872      -1.81209926       0.76328969
H        5.47263802      -1.26600951      -0.63565978
H        5.42336782       1.34950945      -0.70972973
