11
Properties=species:S:1:pos:R:3 atomization_energy=-1017.37 smiles=C.N.C.C.H.H.H.H.H.H.H pbc="F F F"
C        1.14414953      -0.00670000      -0.09327997
N        2.59760898      -0.07776997       0.02585999
C        3.23463867      -0.74654972      -1.10311959
C        3.30410875       0.75148973      -0.94365960
H        0.75941968       0.75105970       0.59728978
H        0.70253974      -0.96769965       0.19015992
H        0.78457970       0.24430990      -1.09874958
H        2.60717890      -1.15905953      -1.88312925
H        4.11972841      -1.32459943      -0.86745966
H        4.23750831       1.18329948      -0.60265977
H        2.72989895       1.37317951      -1.61958931
