10
Properties=species:S:1:pos:R:3 atomization_energy=-1105.67 smiles=C.C.C.N.N.C.H.H.H.H pbc="F F F"
C       -0.63559973      -1.24368954      -0.02203999
C       -1.39410950      -0.08263997      -0.02495999
C       -0.73030974       1.12612955       0.05942997
N        0.61282973       1.21348953       0.14344994
N        1.35739947       0.07382997       0.14631994
C        0.73780972      -1.12146962       0.06507997
H       -1.10225951      -2.21988903      -0.08601997
H       -2.47517912      -0.11815995      -0.09129996
H       -1.25920955       2.07183921       0.06239998
H        1.39170945      -1.98563920       0.07262997
