15
Properties=species:S:1:pos:R:3 atomization_energy=-1588.03 smiles=C.C.C.O.C.C.C.H.H.H.H.H.H.H.H pbc="F F F"
C        1.00738958       0.00850000       0.14583994
C        2.48163905       0.03409999      -0.02755999
C        3.28825881      -0.99976962      -0.26366990
O        4.63415841      -0.71885971      -0.39085985
C        4.70611824       0.72122973      -0.24128991
C        3.30877864       1.20843950       0.03168999
C        2.93361884       2.46679895       0.28496990
H        0.61271978      -1.00959963       0.05791998
H        0.51753980       0.62121975      -0.61836973
H        0.72484973       0.39041985       1.13229955
H        3.03542869      -2.04153915      -0.36794985
H        5.10285817       1.13942955      -1.17273955
H        5.38575784       0.94676965       0.58686977
H        3.66134849       3.27166879       0.30802988
H        1.89891925       2.72865899       0.47902982
