15
Properties=species:S:1:pos:R:3 atomization_energy=-1538.41 smiles=C.C.C.C.C.C.O.H.H.H.H.H.H.H.H pbc="F F F"
C        1.13442960       0.15509993       0.03443999
C        2.62777897      -0.13390994      -0.04711998
C        2.96384888      -0.83858969      -1.29662952
C        3.23620868      -1.42112939      -2.31066898
C        3.42454873       1.13644951      -0.10932996
C        3.78836851       1.87733925       1.15402956
O        4.74040804       1.06143963       0.45880983
H        0.89515964       0.70477975       0.95119964
H        0.55415981      -0.77424970       0.03363999
H        0.79261966       0.76192969      -0.81246968
H        2.92630880      -0.74170969       0.81521965
H        3.48534870      -1.93817922      -3.20910880
H        3.28439865       1.71737928      -1.01309959
H        3.41950866       1.51368941       2.10465918
H        3.91982856       2.95075894       1.09987952
