12
Properties=species:S:1:pos:R:3 atomization_energy=-1272.56 smiles=N.C.N.C.C.C.N.H.H.H.H.H pbc="F F F"
N        1.00640959      -0.14790995       0.23198991
C        2.36163914      -0.06047998       0.05308998
N        3.02158883      -1.16288954      -0.11471995
C        3.10779881       1.24374947       0.03559999
C        2.52240897       2.35656905       0.51094979
C        4.44145807       1.28731951      -0.47150981
N        5.51987796       1.40672947      -0.88534963
H        0.46117981       0.66100973      -0.04516998
H        0.57260977      -1.01212963      -0.06892998
H        2.39730894      -1.96774916      -0.04453998
H        1.52757936       2.35875903       0.94030965
H        3.05150876       3.30653870       0.51356981
