19
Properties=species:S:1:pos:R:3 atomization_energy=-1846.9 smiles=C.C.C.C.O.C.C.H.H.H.H.H.H.H.H.H.H.H.H pbc="F F F"
C        1.42082949       0.17951994      -1.86792931
C        0.83183970       0.45322983      -0.49355981
C        1.75403935       1.26490946       0.43130981
C        1.99734926       2.67502901      -0.10415996
O        1.07721955       1.34414943       1.69585933
C        1.79695926       1.52460943       2.83975893
C        3.11402887       1.68165939       3.00381890
H        0.75567969      -0.47857982      -2.43646898
H        2.39528902      -0.31226987      -1.78747930
H        1.54300942       1.10111961      -2.44426904
H        0.60257978      -0.50473979      -0.00918999
H       -0.13326995       0.96424964      -0.60141975
H        2.69865882       0.71667969       0.53030978
H        1.04973960       3.20634881      -0.24534990
H        2.53621906       2.65895904      -1.05544961
H        2.58447893       3.27096882       0.60147974
H        1.11616952       1.53152936       3.68574867
H        3.82027857       1.68973929       2.18320914
H        3.52114870       1.81952928       4.00096845
