15
Properties=species:S:1:pos:R:3 atomization_energy=-1511.96 smiles=N.C.N.C.C.C.C.H.H.H.H.H.H.H.H pbc="F F F"
N        2.47452912      -1.39197945       1.12000950
C        2.74912886      -0.68237973      -0.00839000
N        2.61281901      -1.19723952      -1.18137949
C        3.24463881       0.74096973       0.11374995
C        4.76799793       0.75810971       0.11562995
C        5.28289804       2.13035912       0.24397990
C        5.70560790       3.25018884       0.34094987
H        2.31510900      -0.86558964       1.97259922
H        1.86114930      -2.19138922       1.02236961
H        2.30444901      -2.16812907      -1.10199961
H        2.84847899       1.18550952       1.03458957
H        2.85215899       1.32655941      -0.72652969
H        5.15180791       0.30493990      -0.80621969
H        5.14746781       0.14638995       0.94322963
H        6.08170763       4.24420821       0.41908983
