17
Properties=species:S:1:pos:R:3 atomization_energy=-1706.13 smiles=C.C.C.C.C.C.O.H.H.H.H.H.H.H.H.H.H pbc="F F F"
C        2.71440883      -1.11553958       1.11529962
C        2.41233905      -0.12879995       0.02194999
C        1.52816944      -0.40358984      -0.95187961
C        3.12397880       1.14631958       0.06199998
C        2.45747909       2.31334899       0.10864996
C        4.63188793       1.09981960       0.01136000
O        5.15882776       0.89176964       1.31587950
H        3.74625846      -1.47611943       1.04596958
H        2.05783924      -1.99149921       1.06435961
H        2.56800902      -0.65644973       2.09972913
H        1.00020962      -1.35171949      -0.98559958
H        1.31534947       0.30262987      -1.74863933
H        1.37182941       2.34827896       0.14221994
H        2.97936876       3.26463884       0.12569995
H        5.04682801       2.03787921      -0.37365985
H        4.98637802       0.29702988      -0.64388975
H        4.65510796       1.47017943       1.91412928
