17
Properties=species:S:1:pos:R:3 atomization_energy=-1710.63 smiles=C.C.C.C.C.C.O.H.H.H.H.H.H.H.H.H.H pbc="F F F"
C        0.94315961       0.01013000       0.10778996
C        2.46472908       0.00775000      -0.02712999
C        3.16391880       1.05107960       0.90285966
C        4.20687832      -0.02963999       1.24001951
C        3.15880884      -1.08683955       0.84472966
C        2.89912894       0.03267999      -1.53939944
O        2.66090905      -0.82647968      -2.38869914
H        0.62785978      -0.00574999       1.15683952
H        0.50782981      -0.86698963      -0.38269984
H        0.51499980       0.90549967      -0.35515987
H        2.56747887       1.36651948       1.76759925
H        3.56312855       1.94482928       0.41494983
H        5.08493811      -0.01415999       0.58458976
H        4.54126821      -0.05883998       2.28002915
H        3.55511855      -1.95261926       0.30643988
H        2.56110901      -1.44697946       1.69069928
H        3.47184872       0.92924966      -1.83308931
