19
Properties=species:S:1:pos:R:3 atomization_energy=-1867.06 smiles=C.C.C.C.C.O.C.H.H.H.H.H.H.H.H.H.H.H.H pbc="F F F"
C        0.99455961       0.00744000      -0.00783000
C        2.51359908       0.00043000       0.03953998
C        3.08543873       1.12636951       0.89750967
C        4.49967847       0.65441973       1.18253959
C        4.35096805      -0.84646968       1.41421942
O        5.49616791      -1.54659934       0.95776965
C        3.08986866      -1.27826952       0.65843974
H        0.62365973      -0.81290968      -0.62969978
H        0.62430973       0.94863961      -0.42833985
H        0.56373976      -0.10587996       0.99210960
H        2.90207894       0.10226996      -0.98341963
H        2.52423913       1.23554946       1.83394925
H        3.07236873       2.08999911       0.37672984
H        5.15896806       0.86148963       0.33043986
H        4.92971805       1.15825952       2.05496923
H        4.23319824      -1.05827956       2.48295900
H        5.58857767      -1.38170944       0.00415000
H        3.29274880      -2.03174920      -0.11117996
H        2.37960916      -1.72053935       1.36702944
