13
Properties=species:S:1:pos:R:3 atomization_energy=-1380.76 smiles=N.N.C.C.C.C.C.H.H.H.H.H.H pbc="F F F"
N        0.91343966       0.03472999       0.15120995
N        2.26478910      -0.03595999       0.07685997
C        2.88562896       1.09693961       0.05694998
C        2.35842898       2.48034914       0.12298995
C        3.43032862       3.27345883       0.05149998
C        4.63234818       2.49903906      -0.05176998
C        4.35603839       1.19338958      -0.04652998
H        0.53701977      -0.91003961       0.26116990
H        0.52403979       0.37414985      -0.73159972
H        1.32144945       2.74498886       0.22117990
H        3.41284863       4.35288829       0.07886997
H        5.62035778       2.92968878      -0.11665995
H        5.02039783       0.35047985      -0.10447996
