17
Properties=species:S:1:pos:R:3 atomization_energy=-1710.69 smiles=C.C.C.C.C.C.O.H.H.H.H.H.H.H.H.H.H pbc="F F F"
C        1.49284938       2.85041891      -0.86117964
C        2.95527895       2.60918897      -0.65678975
C        3.46074868       1.44811937      -0.21497992
C        4.86984792       1.14124961      -0.00126000
C        5.21861816      -0.07821997       0.44286984
C        5.93324753       2.17608912      -0.30127989
O        5.94613762       3.19283874       0.69375975
H        1.16188955       3.68393845      -0.23427990
H        0.88766963       1.97336921      -0.61057976
H        1.30175954       3.10886870      -1.90716922
H        3.60009861       3.45049872      -0.89846966
H        2.76204897       0.64002972       0.00863000
H        4.48548836      -0.84938965       0.66125973
H        6.25917776      -0.34120986       0.61099976
H        5.77245751       2.63978893      -1.28030949
H        6.93292745       1.72971928      -0.32646987
H        5.09376819       3.15458885       1.16028952
