19
Properties=species:S:1:pos:R:3 atomization_energy=-1908.23 smiles=C.C.C.C.C.C.C.H.H.H.H.H.H.H.H.H.H.H.H pbc="F F F"
C        0.80631967       0.57192980      -0.97168963
C        2.29314912       0.70051970      -0.89799963
C        2.93760895       1.45190939       0.00903000
C        4.43368829       1.58700943       0.07831997
C        4.88392800       3.01999889      -0.09311996
C        4.64752793       3.64523865      -1.44100943
C        5.49642781       3.69526862       0.89420968
H        0.51463979      -0.47229980      -0.82420965
H        0.45471982       0.89181966      -1.95694926
H        0.30000988       1.17959955      -0.21513992
H        2.86021895       0.14382994      -1.64088935
H        2.37097918       2.00543925       0.75386972
H        4.92321799       0.96727964      -0.68303971
H        4.76238811       1.19344951       1.04832957
H        5.10320790       3.03582889      -2.22807919
H        5.07981780       4.64939821      -1.50813938
H        3.57566865       3.73394848      -1.64415930
H        5.68122765       3.24178873       1.86403925
H        5.82978768       4.71964824       0.76070973
