17
Properties=species:S:1:pos:R:3 atomization_energy=-1750.87 smiles=C.C.C.C.C.C.C.H.H.H.H.H.H.H.H.H.H pbc="F F F"
C        1.00098958      -0.05393998       0.00279000
C        2.51999896       0.00000000       0.00000000
C        3.00201878       1.36116943       0.00000000
C        3.39929870       2.48306901       0.00000000
C        4.05201834       3.75862850       0.03806998
C        3.89314856       4.69297834      -1.13151959
C        3.24370872       5.01486824       0.18332993
H        0.65744972      -1.09329961       0.00236000
H        0.58524980       0.44194984      -0.88127966
H        0.58858978       0.44009984       0.88944964
H        2.89573887      -0.53278982      -0.88074964
H        2.89905879      -0.53404977       0.87854968
H        5.02582800       3.75462854       0.52017978
H        3.25441867       4.39688830      -1.95376925
H        4.76158821       5.27027794      -1.43021949
H        3.66681853       5.81829752       0.77803971
H        2.16286923       4.93687820       0.25165990
