17
Properties=species:S:1:pos:R:3 atomization_energy=-1648.41 smiles=C.C.C.C.C.O.O.H.H.H.H.H.H.H.H.H.H pbc="F F F"
C        0.99343964      -0.11058995       0.30529988
C        2.39273896       0.19983992      -0.18675992
C        3.21610873       1.18687956       0.64509975
C        4.09469840      -0.02470999       0.98320963
C        5.54690768       0.01656999       0.53040977
O        6.26010735       1.00315963       1.27376945
O        3.30247869      -0.88427962       0.12031995
H        0.56136980      -0.94190962      -0.26111989
H        0.33975988       0.75815973       0.17722993
H        0.98914963      -0.38497984       1.36551949
H        2.41088915       0.41981985      -1.26067951
H        2.70353891       1.63132940       1.50276940
H        3.69895846       1.97472928       0.06022998
H        3.99891850      -0.34974986       2.02694923
H        5.63847769       0.24791991      -0.53615976
H        6.02835774      -0.94951962       0.71017970
H        6.01844768       1.87310930       0.91292963
