15
Properties=species:S:1:pos:R:3 atomization_energy=-1613.13 smiles=C.C.C.C.C.C.C.H.H.H.H.H.H.H.H pbc="F F F"
C        0.96743961      -0.00048000      -0.00477000
C        2.46773913      -0.01529999       0.00142000
C        3.15094872      -1.17019958       0.01268999
C        3.18499881       1.21762952       0.00000000
C        3.78007842       2.24833912       0.00000000
C        4.48307809       3.46596865       0.00000000
C        3.84946851       4.64343814       0.00002000
H        0.57564980       1.02157962       0.03767998
H        0.57129979      -0.54121976       0.86139968
H        0.58158980      -0.46569982      -0.91807965
H        2.63925903      -2.12691909       0.01491000
H        4.23684821      -1.19034949       0.01866999
H        5.56845778       3.43243862      -0.00002000
H        2.76561896       4.70925825       0.00005000
H        4.40934842       5.57272773       0.00002000
