15
Properties=species:S:1:pos:R:3 atomization_energy=-1508.99 smiles=C.C.C.O.C.C.O.H.H.H.H.H.H.H.H pbc="F F F"
C        0.89885964       0.12055996       0.01996999
C        2.41011904       0.00038000       0.01067000
C        3.16970879       0.91676967       0.97088961
O        3.74889860      -0.20638992       1.67078934
C        3.00617871      -1.15017949       0.84617969
C        3.91158842      -2.19133926       0.12941995
O        4.27645816      -2.18226921      -1.04693960
H        0.44529982      -0.69656971      -0.55014977
H        0.58540978       1.06419963      -0.43791982
H        0.49480980       0.08815997       1.03734957
H        2.80210884       0.05357998      -1.01230960
H        2.55897909       1.52878942       1.64134934
H        3.93992850       1.53937939       0.50620981
H        2.26365916      -1.66187939       1.47325939
H        4.22423846      -3.02611893       0.77892968
