13
Properties=species:S:1:pos:R:3 atomization_energy=-1163.14 smiles=C.N.C.C.H.H.H.H.H.H.H.H.H pbc="F F F"
C        0.99935958       0.00416000      -0.01126000
N        2.46130898       0.01111000      -0.01432000
C        2.97332871      -0.71238974      -1.17697959
C        2.96585895       1.38321952      -0.00343000
H        0.61375976       0.50970980       0.88149963
H        0.61918974      -1.02328960       0.02195999
H        0.57969977       0.49840981      -0.89541967
H        2.63048901      -1.75334935      -1.16436959
H        4.06878827      -0.74326973      -1.15964948
H        2.65640898      -0.25667990      -2.12250910
H        2.61557901       1.91535926       0.88843962
H        2.65053900       1.94885927      -0.88817966
H        4.06110832       1.39036945       0.03767998
