13
Properties=species:S:1:pos:R:3 atomization_energy=-1402.8 smiles=C.C.C.O.C.C.O.H.H.H.H.H.H pbc="F F F"
C        0.92164963       0.03386998      -0.00906000
C        2.40076916      -0.01916999      -0.00178000
C        3.27218859       1.05517961       0.00450000
O        4.56608802       0.63727975       0.01009999
C        4.53925814      -0.72175969       0.00739000
C        3.24112863      -1.15759954       0.00011000
O        2.89625892      -2.45359900      -0.00418000
H        0.55914979       1.06583953      -0.00050000
H        0.51672978      -0.47542981       0.87136966
H        0.52636978      -0.45719983      -0.90409961
H        3.13497867       2.12721911       0.00581000
H        5.49947799      -1.21509953       0.01115999
H        1.92895929      -2.54279910      -0.00929000
