9
Properties=species:S:1:pos:R:3 atomization_energy=-1093.99 smiles=N.C.C.C.C.C.N.H.H pbc="F F F"
N        0.99999962       0.00000000       0.00000000
C        2.15100915       0.00000000       0.00000000
C        3.59500859       0.00000000       0.00000000
C        4.07702841       1.36116943       0.00000000
C        4.47430807       2.48306901       0.00000000
C        4.99069793       3.93048854       0.00000000
N        5.38941766       5.01868803       0.00000000
H        3.97197836      -0.53468981      -0.87862967
H        3.97197836      -0.53468981       0.87862967
