17
Properties=species:S:1:pos:R:3 atomization_energy=-1706.79 smiles=C.C.C.C.C.C.O.H.H.H.H.H.H.H.H.H.H pbc="F F F"
C        0.98872963       0.00600000       0.00987999
C        2.50644902      -0.04187998      -0.01008000
C        3.09990867      -1.16325958       0.85531969
C        3.88079846      -0.28772989       1.82661928
C        4.60899795       0.78130967       0.96623959
C        3.11338871       1.14085951       0.74228973
O        2.94557883       0.82211965       2.19982920
H        0.56978978      -0.88163967      -0.47392983
H        0.62696975       0.89091966      -0.52318978
H        0.59477978       0.05437998       1.03022960
H        2.87185899      -0.09480996      -1.04184958
H        3.75703856      -1.82130922       0.27853990
H        2.34135902      -1.76522936       1.36358941
H        4.41169813      -0.71799970       2.67529900
H        5.17143776       0.42443985       0.10059996
H        5.19628785       1.51811934       1.52180943
H        2.86783885       2.17094913       0.48467980
