17
Properties=species:S:1:pos:R:3 atomization_energy=-1696.05 smiles=C.C.C.O.C.C.C.H.H.H.H.H.H.H.H.H.H pbc="F F F"
C        0.82182966       0.64336976       0.21770991
C        2.22726921       0.38701985      -0.30209987
C        3.23535882       1.20244953       0.43928983
O        4.35711837       1.61721941      -0.34589985
C        3.46772866       2.65718894       0.10109996
C        3.83542855       3.57178856       1.18536948
C        2.98956875       4.15625840       2.04460914
H        0.10135996       0.00209000      -0.29820987
H        0.53031981       1.68544928       0.05488998
H        0.75695971       0.44138982       1.29117954
H        2.25997916       0.60340976      -1.37730941
H        2.47164901      -0.67495974      -0.18235992
H        3.42467868       0.84637966       1.44311942
H        2.84262894       3.10846875      -0.66298972
H        4.89866818       3.78207840       1.28442943
H        1.91984925       3.98238854       1.99249920
H        3.35778869       4.82090827       2.81957899
