17
Properties=species:S:1:pos:R:3 atomization_energy=-1754.98 smiles=C.C.C.C.C.C.C.H.H.H.H.H.H.H.H.H.H pbc="F F F"
C        0.88258964       0.59692977      -1.01663961
C        2.37671896       0.60271977      -1.00858961
C        3.11897885       1.12504957      -0.01874999
C        4.62101801       1.13798949       0.00000000
C        5.10303783       2.49916901       0.00000000
C        5.50031775       3.62105850       0.00000000
C        5.98233757       4.98222818       0.00000000
H        0.51287981       1.14563954      -1.88820930
H        0.46168981       1.05938957      -0.11830996
H        0.51439979      -0.43175982      -1.07559958
H        2.86353888       0.15805994      -1.87404923
H        2.62669899       1.57006942       0.84419964
H        5.02680805       0.59244976      -0.85975965
H        4.96378782       0.61074977       0.89743965
H        5.18842773       5.68130789      -0.28030990
H        6.80536744       5.10883791      -0.71002975
H        6.34769758       5.27089817       0.99032959
