19
Properties=species:S:1:pos:R:3 atomization_energy=-1845.92 smiles=C.C.C.C.O.C.C.H.H.H.H.H.H.H.H.H.H.H.H pbc="F F F"
C        2.28027921      -0.49481980      -1.56346932
C        2.38798908      -0.04079999      -0.11701995
C        3.24307865       1.21253950      -0.01416999
C        2.62252897       2.53823897      -0.47949982
O        2.99806878       3.18889884       0.75997967
C        3.27269880       1.89758921       1.36900948
C        4.59963798       1.91050921       2.09804911
H        1.67996927      -1.40761945      -1.63250930
H        3.26999861      -0.70383975      -1.98436921
H        1.80768926       0.27244988      -2.18478925
H        2.83833881      -0.84321965       0.47801980
H        1.38409940       0.13568995       0.28449990
H        4.24767827       1.05530956      -0.43023984
H        1.53614942       2.54763907      -0.61346977
H        3.10676880       2.99971878      -1.34463946
H        2.44589911       1.61523937       2.03355917
H        5.40979795       2.27131918       1.45580941
H        4.86014830       0.90356965       2.43977906
H        4.55039806       2.56140904       2.97707886
