21
Properties=species:S:1:pos:R:3 atomization_energy=-2050.29 smiles=C.C.C.C.C.C.C.H.H.H.H.H.H.H.H.H.H.H.H.H.H pbc="F F F"
C        0.86101966       0.97655962      -1.00831962
C        2.34843919       0.83163967      -1.05388957
C        3.17243876       1.29096948      -0.09730996
C        4.69234801       1.19254957      -0.05372998
C        5.08898802       0.42675985       1.22107953
C        5.31361785       0.47638981      -1.26706955
C        5.26562798       2.61907909       0.01751999
H        0.51535978       1.53956939      -1.88071923
H        0.52136981       1.49914946      -0.10847996
H        0.39038986      -0.01122000      -1.02726957
H        2.74099900       0.31962986      -1.92790921
H        2.72373903       1.79761935       0.75870969
H        4.70659817       0.91983966       2.12277909
H        6.17863766       0.36046987       1.32025946
H        4.69360816      -0.59585976       1.20937955
H        5.07981780       0.99562962      -2.20364924
H        4.95506825      -0.55597975      -1.35180945
H        6.40594724       0.43515983      -1.18216954
H        4.99935794       3.19908873      -0.87397965
H        6.35929725       2.60313908       0.08899996
H        4.88730823       3.16219866       0.89170964
