13
Properties=species:S:1:pos:R:3 atomization_energy=-1338.92 smiles=N.N.C.C.C.C.C.H.H.H.H.H.H pbc="F F F"
N        0.86529965       0.32746986       0.06894997
N        2.18972913       0.05137998       0.05443998
C        2.93630894       1.11324955       0.01723999
C        4.42840801       1.10055956       0.00000000
C        5.07824779      -0.07165997      -0.01865999
C        5.13140794       2.31818921       0.00000000
C        5.72648780       3.34889881       0.00000000
H        0.34086988      -0.53994978      -0.07094997
H        0.57531974       0.65906975       0.99252960
H        2.48582901       2.12471926      -0.00539000
H        4.54343826      -1.01700959      -0.02239999
H        6.16209735      -0.11977995      -0.03364998
H        6.26178737       4.27006812      -0.00134000
