17
Properties=species:S:1:pos:R:3 atomization_energy=-1693.16 smiles=C.C.C.C.O.C.C.H.H.H.H.H.H.H.H.H.H pbc="F F F"
C        0.98270963      -0.14378994       0.07232998
C        2.50139912      -0.01704999      -0.00101000
C        3.02738892       1.43281939       0.00000000
C        2.50322902       2.23793904      -1.19001957
O        2.57188911       2.08676915       1.18544959
C        4.47138809       1.43281939       0.00000000
C        5.66154783       1.43281939       0.00000000
H        0.70088975      -1.19945953       0.14435994
H        0.50364981       0.26360990      -0.82181969
H        0.58049979       0.37017986       0.94960963
H        2.85856896      -0.54951975      -0.89281965
H        2.91285879      -0.55161978       0.86708968
H        2.75823902       1.76465934      -2.14509905
H        2.92564895       3.25106872      -1.19429948
H        1.41643943       2.36815913      -1.14176954
H        3.03187890       1.66864931       1.93310926
H        6.72730725       1.43919946      -0.00153000
