18
Properties=species:S:1:pos:R:3 atomization_energy=-1773.89 smiles=N.C.C.C.C.C.C.H.H.H.H.H.H.H.H.H.H.H pbc="F F F"
N        1.45216941       0.23399991       0.66474973
C        2.48303899       0.48009980      -0.34828987
C        2.09153922      -0.21075992      -1.67617939
C        3.16349867      -0.12858995      -2.73391883
C        3.78147861      -1.19112957      -3.26726864
C        2.61684899       1.97226917      -0.49454980
C        3.74293854       2.66095901      -0.26560991
H        1.76394928       0.64152977       1.54589937
H        1.38114952      -0.76845971       0.83014965
H        3.42466858       0.04727998       0.01331999
H        1.17487956       0.23702990      -2.08204917
H        1.85674927      -1.26543949      -1.47679946
H        3.42861858       0.86630967      -3.08657876
H        3.54687867      -2.20477918      -2.95956884
H        4.53928842      -1.06277964      -4.03449848
H        1.72494934       2.51193899      -0.80815968
H        4.65879805       2.17028903       0.04870998
H        3.76728851       3.73924845      -0.39009983
