15
Properties=species:S:1:pos:R:3 atomization_energy=-1470.39 smiles=C.O.C.C.O.C.C.H.H.H.H.H.H.H.H pbc="F F F"
C       -1.75064928       0.65995972       0.21686992
O       -1.55983941      -0.70279970      -0.37440985
C       -0.23936990      -0.62088976       0.22750990
C        1.03745958      -0.97209960      -0.46840983
O        1.94771924       0.04394998       0.02647999
C        1.10786959       1.09136953       0.58712979
C       -0.24115991       0.89236968      -0.05266998
H       -2.43483892       1.25915947      -0.38862985
H       -2.08696912       0.61674976       1.25853949
H       -0.26720991      -0.94996965       1.27808948
H        1.42038942      -1.95867924      -0.19463993
H        0.98392959      -0.89212965      -1.55933942
H        1.09414959       0.98833958       1.67859937
H        1.55108945       2.05890913       0.33443988
H       -0.13860995       1.18939959      -1.11103950
