17
Properties=species:S:1:pos:R:3 atomization_energy=-1665.52 smiles=C.C.O.C.C.O.C.H.H.H.H.H.H.H.H.H.H pbc="F F F"
C        0.97684962       0.00745000      -0.02679999
C        2.49373909       0.03351999       0.01097000
O        2.96726872       0.18684992      -1.33170950
C        3.06888883       1.14119952       0.86897964
C        4.46684815       0.62990978       1.16481950
O        4.43444831      -0.80325966       1.06405959
C        3.11146872      -1.20200946       0.65488976
H        0.54596977      -0.10067996       0.97329963
H        0.61998976      -0.82207966      -0.64792977
H        0.58452977       0.92705961      -0.47465982
H        3.90398846      -0.08383997      -1.34686943
H        2.51149892       1.23639957       1.80863929
H        3.09567884       2.11935925       0.37956986
H        5.18978780       0.99766960       0.42931984
H        4.81212815       0.91915963       2.16153919
H        3.20324866      -2.04592921      -0.03477999
H        2.56981899      -1.51996943       1.55225938
