13
Properties=species:S:1:pos:R:3 atomization_energy=-1421.58 smiles=C.C.C.C.O.O.C.H.H.H.H.H.H pbc="F F F"
C        1.00887960       0.03546999       0.02839999
C        2.49142900      -0.02582999       0.01115000
C        3.25826874      -1.10969963      -0.08368997
C        4.64507830      -0.64755972      -0.05738998
O        5.62011756      -1.37226947      -0.12456995
O        4.66307810       0.70870974       0.05316998
C        3.32141867       1.19354955       0.10383996
H        0.56433980      -0.96203960      -0.05013998
H        0.64168974       0.63493975      -0.81044970
H        0.65625972       0.48907980       0.95993964
H        2.97916892      -2.14447907      -0.16584994
H        3.15504885       1.87255922      -0.73768974
H        3.16978878       1.72689936       1.04692958
