17
Properties=species:S:1:pos:R:3 atomization_energy=-1642.9 smiles=C.C.C.C.O.C.O.H.H.H.H.H.H.H.H.H.H pbc="F F F"
C        0.84304964       0.00205000      -0.20704993
C        2.32412909      -0.00158000       0.07206997
C        2.65948893       0.00846000       1.54293940
C        3.25459883      -0.76399969      -0.84679966
O        2.64892887      -1.46964940      -1.94245926
C        3.22073875       0.74412973      -0.89350965
O        4.33913826       1.43808945      -0.31595987
H        0.61860976       0.09484996      -1.27452947
H        0.36341987       0.84332967       0.30358989
H        0.38732984      -0.92502961       0.15489995
H        3.73585863      -0.07902997       1.72708936
H        2.17061908      -0.83035965       2.04905925
H        2.31317917       0.93877964       2.00429922
H        4.12040844      -1.23897953      -0.39572985
H        2.35861898      -0.87378965      -2.65356899
H        2.75359890       1.21811955      -1.75091927
H        5.15751817       0.91570962      -0.37448986
