15
Properties=species:S:1:pos:R:3 atomization_energy=-1574.63 smiles=C.C.C.C.O.C.C.H.H.H.H.H.H.H.H pbc="F F F"
C        0.96325962       0.01258000       0.44590983
C        2.25645914       0.00461000       0.09690996
C        3.08147890      -1.23480950      -0.19047993
C        4.24297834      -0.76451968      -1.02051957
O        5.24586792      -0.00836000      -0.33138986
C        4.24591851       0.72825974      -1.04624961
C        3.08639885       1.23025946      -0.23125991
H        0.42138983       0.94413960       0.57768977
H        0.41779985      -0.91136965       0.60859978
H        2.49608905      -1.98020928      -0.73730972
H        3.44461865      -1.67750930       0.74429968
H        4.50080840      -1.34670945      -1.88939930
H        4.50527820       1.27933953      -1.93331919
H        3.45097866       1.70229933       0.68741974
H        2.50363906       1.95935927      -0.80310971
