15
Properties=species:S:1:pos:R:3 atomization_energy=-1585.6 smiles=C.C.C.C.O.C.C.H.H.H.H.H.H.H.H pbc="F F F"
C        0.99314958       0.05289998       0.00179000
C        2.47573904      -0.02682999       0.00342000
C        3.25336872      -1.12389957       0.00250000
C        4.69655791      -0.72434974       0.01371999
O        5.32976806      -1.17847958      -1.16303955
C        4.60653823       0.77021971      -0.00172000
C        3.31927865       1.14919956       0.00078000
H        0.54061978      -0.94439963      -0.00171000
H        0.63658975       0.58619976      -0.88473963
H        0.63474975       0.58058975       0.89145964
H        2.91159890      -2.14759915       0.00397000
H        5.22195802      -1.09752956       0.89696968
H        4.81306834      -0.82055967      -1.90499930
H        5.46063765       1.42853947      -0.00443000
H        2.95407886       2.16515913      -0.00306000
