17
Properties=species:S:1:pos:R:3 atomization_energy=-1647.04 smiles=C.C.C.C.O.C.O.H.H.H.H.H.H.H.H.H.H pbc="F F F"
C        0.84592969       0.17832993      -0.68577971
C        2.28058908       0.02378999      -0.28686988
C        2.60346887       0.02023999       1.18876952
C        2.57789888       1.41955938       1.80056924
O        3.70393848       2.17753926       1.37267951
C        3.24956861      -0.61657975      -1.25912956
O        3.18896873       0.80427970      -1.08176958
H        0.72804973       0.20866992      -1.77417930
H        0.42369982       1.10298951      -0.28139988
H        0.25605989      -0.66277971      -0.30843989
H        3.59277848      -0.42463982       1.35173943
H        1.87477922      -0.61533973       1.70503927
H        2.62967902       1.34871953       2.89125898
H        1.66917934       1.96881917       1.53844942
H        3.74067841       2.09920921       0.39859983
H        2.87027890      -1.02216957      -2.18944905
H        4.12205843      -1.13201959      -0.87557968
