19
Properties=species:S:1:pos:R:3 atomization_energy=-1784.1 smiles=N.C.C.C.C.C.N.H.H.H.H.H.H.H.H.H.H.H.H pbc="F F F"
N        1.14793954       2.14870915       0.34918987
C        2.49452914       1.87492924      -0.13752995
C        3.40690875       1.44600937       1.01117960
C        4.79601831       1.12336954       0.47635981
C        5.69521791       2.30641922       0.04371998
C        6.81654723       1.52712946       0.75010973
N        5.77207750       0.87826966       1.57339944
H        0.57729979       2.51128898      -0.41316985
H        1.18120955       2.88228886       1.05640960
H        2.89340884       2.77107890      -0.62540977
H        2.44722914       1.08586959      -0.89605965
H        2.98749888       0.55840976       1.50242938
H        3.45466875       2.24102909       1.76696931
H        4.78056807       0.30660988      -0.25928989
H        5.45527763       3.26667868       0.51567980
H        5.81614766       2.45234894      -1.03236962
H        7.36046693       0.83274967       0.09900996
H        7.53462698       2.13138914       1.31030954
H        5.94054747      -0.10407996       1.78454935
