12
Properties=species:S:1:pos:R:3 atomization_energy=-1269.63 smiles=N.C.C.N.C.C.N.H.H.H.H.H pbc="F F F"
N        1.03843958      -0.22909991       0.01192000
C        2.19880902      -0.18621993      -0.01119999
C        3.67688856      -0.13809995      -0.01953999
N        4.18510844       1.24169953       0.07063997
C        5.65578761       1.30121943       0.01864999
C        6.33367755       0.70769972       1.18978957
N        6.83520712       0.21951991       2.11546918
H        4.03466830      -0.60087976      -0.94685960
H        4.04682839      -0.73987972       0.81808967
H        3.85902858       1.66255930       0.94288962
H        5.94070745       2.35737903      -0.04987998
H        6.01416764       0.82960966      -0.90375966
