21
Properties=species:S:1:pos:R:3 atomization_energy=-1995.56 smiles=C.C.C.C.O.C.C.H.H.H.H.H.H.H.H.H.H.H.H.H.H pbc="F F F"
C        0.93421964      -0.11237996      -0.45358982
C        2.45624898      -0.02701999      -0.43190983
C        3.02904875       1.40864946      -0.36885985
C        2.55450904       2.25955903      -1.55033939
O        2.55492892       2.03937920       0.82439965
C        4.57228830       1.32641950      -0.30794989
C        5.28356772       2.66933894      -0.18492992
H        0.61997972      -1.15950956      -0.39105986
H        0.52342981       0.29540988      -1.38176949
H        0.48932979       0.42238984       0.39033983
H        2.85080877      -0.54815975      -1.31276951
H        2.79772887      -0.58481977       0.45003983
H        2.87801891       1.83642929      -2.50642909
H        2.92665879       3.28717858      -1.47822943
H        1.46307946       2.35562911      -1.56119935
H        2.85685891       1.51115941       1.58268940
H        4.95394791       0.80512968      -1.19437947
H        4.86200798       0.72781974       0.56472978
H        5.16276817       3.27098876      -1.09090952
H        6.35755768       2.50929910      -0.04170998
H        4.91333822       3.24422877       0.66862976
