12
Properties=species:S:1:pos:R:3 atomization_energy=-1206.68 smiles=C.C.C.C.N.N.H.H.H.H.H.H pbc="F F F"
C        0.42555982       1.42403940       0.31319986
C        1.10792952       0.30562990      -0.44012984
C        1.04734958      -1.09135956       0.05000998
C       -0.43097983      -1.24734948       0.08791997
N       -1.09195960      -0.21673992      -0.33228986
N       -0.24456991       0.76183973      -0.80186969
H        0.74749968       2.43948914       0.11817995
H        0.03675998       1.25801956       1.31014943
H        1.90037924       0.52712980      -1.13840950
H        1.47384946      -1.21768958       1.04747960
H        1.47981937      -1.81308928      -0.64687976
H       -0.89894966      -2.16520909       0.46831981
