19
Properties=species:S:1:pos:R:3 atomization_energy=-1908.13 smiles=C.C.C.C.C.C.C.H.H.H.H.H.H.H.H.H.H.H.H pbc="F F F"
C        0.83303966       0.85988966       1.05086960
C        2.32320909       0.80052968       0.96497964
C        3.04338874       1.39758940       0.00051000
C        4.54035830       1.33540943      -0.09600996
C        5.14710798       2.70549902       0.00264000
C        5.86926793       3.28301865      -0.97092961
C        6.47658738       4.64385802      -0.86452966
H        0.41684985      -0.15090994       1.00088960
H        0.39412985       1.45047942       0.24059990
H        0.53272976       1.30926942       2.00225925
H        2.82754887       0.23302990       1.74368935
H        2.53566898       1.96071921      -0.78000966
H        4.80763817       0.85549966      -1.04500959
H        4.96002808       0.71096975       0.70170969
H        4.98209798       3.23624880       0.93851961
H        6.03875782       2.75316893      -1.90582922
H        6.27063764       5.11522795       0.10157996
H        6.07968747       5.29140816      -1.65223933
H        7.56190701       4.57767809      -0.98750960
