10
Properties=species:S:1:pos:R:3 atomization_energy=-1169.19 smiles=N.C.C.C.N.C.N.H.H.H pbc="F F F"
N        0.95136965      -0.02677999      -0.00641000
C        2.11358918      -0.03116999      -0.00228000
C        3.54436873       0.01063000       0.00270000
C        4.34680812       1.13036959       0.00292000
N        5.62745788       0.64512977       0.00862000
C        5.55204767      -0.72010969       0.01155999
N        4.30504830      -1.13522950       0.00811000
H        4.12742829       2.18820909      -0.00036000
H        6.47974758       1.19060952       0.01035999
H        6.43138728      -1.35159951       0.01617999
