15
Properties=species:S:1:pos:R:3 atomization_energy=-1604.33 smiles=C.C.C.C.C.C.C.H.H.H.H.H.H.H.H pbc="F F F"
C        1.29419945      -0.43967983       0.90560963
C        2.14291916      -0.03960998      -0.05083998
C        3.17559871       1.03963960       0.12842995
C        4.57960843       0.52560979      -0.09731996
C        5.35250765       0.10618996       0.91801966
C        5.12220794       0.52518979      -1.41918946
C        5.57928784       0.53178976      -2.52890902
H        0.56999978      -1.22501955       0.71150973
H        1.30283952      -0.00028000       1.89822925
H        2.09249921      -0.51000979      -1.03092957
H        3.09713883       1.48276937       1.12994959
H        2.96145880       1.85512931      -0.57405979
H        4.98378809       0.09690996       1.93870924
H        6.36573725      -0.24923990       0.75485968
H        5.98863777       0.53844980      -3.51246850
