15
Properties=species:S:1:pos:R:3 atomization_energy=-1558.4 smiles=C.C.O.C.C.C.C.H.H.H.H.H.H.H.H pbc="F F F"
C        1.10063954      -0.02666999       0.06333997
C        2.43068908      -0.01805999       0.03391999
O        3.25166876      -1.13588959       0.09785996
C        4.51086835      -0.37976986      -0.00014000
C        4.38542842       0.72035969      -1.12972955
C        3.29985873       1.17359949      -0.08228997
C        4.45058843       0.88063968       0.95272965
H        0.56159980      -0.96436963       0.14657994
H        0.52450979       0.88927963       0.00364000
H        5.40361785      -1.00624961       0.02014999
H        4.01588854       0.37477986      -2.09982919
H        5.24262798       1.38460949      -1.28306949
H        2.86483889       2.16891912      -0.14479995
H        5.31295775       1.55604940       0.94850960
H        4.14457849       0.68954973       1.98557927
