17
Properties=species:S:1:pos:R:3 atomization_energy=-1724.38 smiles=C.C.C.C.C.C.O.H.H.H.H.H.H.H.H.H.H pbc="F F F"
C        1.07143952      -0.06472997       0.29395989
C        2.40183904       0.18604992      -0.33413986
C        3.14555867       1.29020946      -0.19997992
C        2.79372891       2.53610904       0.54679982
C        3.53395855       3.55056851      -0.28595988
C        4.75791831       2.77255882      -0.71997974
O        4.33424807       1.41416946      -0.91119964
H        1.03073962      -1.08752955       0.68297971
H        0.28017989       0.04590998      -0.45388981
H        0.86212967       0.61262976       1.12667950
H        2.78331899      -0.61103976      -0.96951964
H        3.19534868       2.49251907       1.56478939
H        1.72273930       2.74915889       0.58549980
H        2.93300895       3.82182839      -1.16312951
H        3.77996840       4.46782820       0.25492991
H        5.17696786       3.15602865      -1.65547939
H        5.54015783       2.78788895       0.04848998
