17
Properties=species:S:1:pos:R:3 atomization_energy=-1714.43 smiles=C.C.C.C.C.C.O.H.H.H.H.H.H.H.H.H.H pbc="F F F"
C        1.77404935       0.08333997      -0.74198971
C        1.84923926      -0.08850997       0.75051971
C        0.51765978       0.04603998       0.07596997
C       -0.34674986       1.24568952       0.27069990
C       -1.71029937       0.72901970      -0.16308994
C       -1.65717935      -0.74685971       0.19929992
O       -0.29337988      -1.14092953      -0.01538000
H        2.09622917       1.03000957      -1.15865959
H        1.99831922      -0.77588972      -1.36313950
H        2.12185909      -1.06431961       1.13638958
H        2.21592919       0.74247968       1.34047952
H       -0.36717986       1.53339938       1.32800944
H       -0.03602998       2.11102916      -0.32355986
H       -2.54520912       1.25741952       0.30500989
H       -1.80603927       0.83195969      -1.25024952
H       -2.32048921      -1.35186950      -0.42334984
H       -1.89863929      -0.91107966       1.25489948
