15
Properties=species:S:1:pos:R:3 atomization_energy=-1590.78 smiles=C.C.C.C.C.O.C.H.H.H.H.H.H.H.H pbc="F F F"
C        0.99280963       0.04591999       0.00396000
C        2.47208907      -0.03538999       0.03610999
C        3.24682879      -1.11994957       0.01334000
C        4.61004816      -0.68942974       0.06329998
C        5.68866789      -1.47190941       0.06166998
O        4.69876833       0.69345972       0.11670996
C        3.33586867       1.17603953       0.10292996
H        0.53769980      -0.94809962      -0.05418998
H        0.66051971       0.62020973      -0.86630967
H        0.61765973       0.53643978       0.90742963
H        2.92112894      -2.14720905      -0.03342999
H        6.68073750      -1.03519958       0.10246996
H        5.61083783      -2.55210912       0.02042999
H        3.20342883       1.82035932      -0.77194970
H        3.16108865       1.75193932       1.01717959
