15
Properties=species:S:1:pos:R:3 atomization_energy=-1590.76 smiles=C.C.C.C.O.C.C.H.H.H.H.H.H.H.H pbc="F F F"
C        0.99320964       0.02057999       0.05609997
C        2.47830904      -0.02453999       0.05059998
C        3.25672876      -1.10038961      -0.08272997
C        4.68064792      -0.68539976      -0.03170999
O        4.67487811       0.74661968       0.14335994
C        3.33755879       1.11992951       0.19268992
C        2.98156884       2.39544901       0.35446987
H        0.56341980      -0.97995960      -0.06208998
H        0.62101977       0.64080974      -0.76584971
H        0.62074978       0.43205984       0.99989964
H        2.92050897      -2.11754928      -0.20865993
H        5.20418784      -1.14210956       0.81370970
H        5.20465818      -0.92520965      -0.96192965
H        3.74090854       3.16411865       0.44995981
H        1.94450920       2.70509882       0.39640985
