17
Properties=species:S:1:pos:R:3 atomization_energy=-1732.12 smiles=C.C.C.C.C.C.O.H.H.H.H.H.H.H.H.H.H pbc="F F F"
C       -1.25961947      -0.77282970      -0.51549980
C       -1.22376950       0.76332968      -0.53581981
C        0.01217000       1.06341955       0.31956987
C       -0.01925999      -0.03270999       1.36964952
C       -0.01539999      -1.12785953       0.31586987
C        1.22558957      -0.72104969      -0.47670983
O        1.16865960       0.72428968      -0.48303981
H       -1.22702950      -1.19803954      -1.52356944
H       -2.17307906      -1.12396959      -0.02257999
H       -2.13408908       1.17280957      -0.08622996
H       -1.12201957       1.14150951      -1.55800938
H        0.07680997       2.08999911       0.68566975
H       -0.91623965      -0.01867999       1.99627925
H        0.87959963      -0.05369998       1.99475921
H       -0.00342000      -2.15689907       0.67902972
H        2.15183907      -1.02243957       0.02435999
H        1.23153954      -1.09282952      -1.50547943
