19
Properties=species:S:1:pos:R:3 atomization_energy=-1846.84 smiles=C.C.C.C.C.O.C.H.H.H.H.H.H.H.H.H.H.H.H pbc="F F F"
C        2.74496892      -1.12045954      -1.41356942
C        2.96867875      -0.54753978      -0.02387999
C        3.27410883       0.92349966      -0.07642997
C        4.49484834       1.49627944      -0.06480997
C        5.78332794       0.71886974      -0.05629998
O        4.73564806       2.85611883      -0.08857996
C        3.62860851       3.74741843      -0.12631995
H        2.50086896      -2.18596915      -1.34922949
H        3.64198863      -1.01680962      -2.03398915
H        1.91781924      -0.61423976      -1.92374928
H        3.75690861      -1.10694959       0.49004982
H        2.06286921      -0.69141975       0.57790980
H        2.38281907       1.54399944      -0.11107996
H        5.65100796      -0.34991987      -0.24076991
H        6.28767756       0.84042969       0.90799964
H        6.44975750       1.09434956      -0.84035967
H        4.02021829       4.76902795      -0.14195994
H        3.00723875       3.63946859       0.76867967
H        3.03800878       3.60062850      -1.03654962
