17
Properties=species:S:1:pos:R:3 atomization_energy=-1696.44 smiles=C.C.C.C.O.C.C.H.H.H.H.H.H.H.H.H.H pbc="F F F"
C        0.47679981       0.39671984      -0.28792990
C        1.72139929      -0.41314985      -0.17577993
C        2.33549914      -1.04191960      -1.39555940
C        3.02127871       0.11989995      -0.72294974
O        4.21325827      -0.22234992       0.01288999
C        4.50918833       0.70329970       0.97965964
C        5.57895779       0.57893975       1.76642932
H        0.42126984       1.11629960       0.53504982
H       -0.40190985      -0.25344991      -0.23199990
H        0.42947982       0.95292962      -1.23007955
H        1.75500931      -0.97433962       0.75133972
H        1.87835930      -0.86571965      -2.36177918
H        2.78318878      -2.02354919      -1.29013944
H        3.01690884       1.05660957      -1.27384956
H        3.81582846       1.52942946       1.06089964
H        6.25105774      -0.26585990       1.65944932
H        5.79916778       1.31627944       2.52961908
