15
Properties=species:S:1:pos:R:3 atomization_energy=-1524.29 smiles=C.C.C.O.C.C.O.H.H.H.H.H.H.H.H pbc="F F F"
C        1.03166959       0.06756998       0.21418992
C        2.50414902      -0.06428997      -0.13261995
C        2.77853882      -0.07497997      -1.62631936
O        3.28934863       0.96292964       0.53229979
C        4.07787851       0.02613999       1.30804953
C        3.27599879      -1.10786959       0.67932974
O        3.26259874      -2.31600907       0.77937972
H        0.87787968       0.12047995       1.29775946
H        0.46405983      -0.79046967      -0.16148994
H        0.60372978       0.97474959      -0.22600990
H        3.85298853      -0.11739995      -1.83585927
H        2.38309915       0.82744971      -2.10494911
H        2.31133917      -0.94335964      -2.10264911
H        5.13371777       0.05006998       1.03332962
H        3.93241837       0.15360993       2.38178905
