15
Properties=species:S:1:pos:R:3 atomization_energy=-1574.88 smiles=C.C.C.C.C.C.O.H.H.H.H.H.H.H.H pbc="F F F"
C        1.44623938       0.39932986      -0.24501991
C        2.68084903      -0.22572991       0.28683989
C        2.86111877      -1.72687930       0.27156991
C        4.32270846      -1.94135923      -0.06048997
C        4.94706784      -0.75406969      -0.15072994
C        4.05892843       0.38961984       0.11230995
O        3.32055872       0.50224982       1.34080945
H        1.52536945       1.49131936      -0.27716989
H        0.58890974       0.14133995       0.38457983
H        1.24236947       0.04846998      -1.26178951
H        2.23830921      -2.19103924      -0.50023981
H        2.61292903      -2.16467920       1.24354950
H        4.78299802      -2.90852879      -0.19399992
H        5.99942746      -0.62908977      -0.36842984
H        4.17104829       1.26575944      -0.51283981
