21
Properties=species:S:1:pos:R:3 atomization_energy=-1933.09 smiles=N.C.C.C.C.C.N.H.H.H.H.H.H.H.H.H.H.H.H.H.H pbc="F F F"
N        0.81002970       1.17549954       1.46017942
C        2.07966918       0.90356965       0.79569968
C        2.92488893       2.17378912       0.72896973
C        4.25791838       1.91535926       0.02326999
C        5.10750813       3.18681887      -0.04358998
C        6.43824767       2.92766886      -0.74834972
N        7.23405705       4.14795847      -0.78976971
H        0.28313990       0.30766987       1.55232940
H        0.98310964       1.50634935       2.40902897
H        1.87972921       0.52903979      -0.21401991
H        2.61485886       0.11941996       1.34284942
H        3.11590874       2.54721894       1.74255929
H        2.37497913       2.95790875       0.19411992
H        4.07093839       1.54519940      -0.99235960
H        4.81074790       1.13215951       0.55650978
H        5.29161809       3.55653867       0.97338958
H        4.55090827       3.96921836      -0.57522979
H        6.26300764       2.57293906      -1.76939926
H        7.00072734       2.15265915      -0.21710991
H        6.72895750       4.87065790      -1.30118953
H        8.09167699       3.97523848      -1.31248942
