13
Properties=species:S:1:pos:R:3 atomization_energy=-1344.81 smiles=N.N.C.C.C.C.C.H.H.H.H.H.H pbc="F F F"
N        0.88250965       0.31061987       0.36033986
N        2.21569907       0.08339997       0.39849985
C        2.91741892       1.15420960       0.20051992
C        4.39192848       1.11398951       0.20906992
C        5.08542813       2.23854917       0.00000000
C        6.49142748       2.23854917       0.00000000
C        7.68158722       2.23854917       0.00000000
H        0.39509984      -0.58707977       0.29101989
H        0.56251980       0.70246972       1.25021950
H        2.45023895       2.13970926       0.01448999
H        4.85685790       0.15141993       0.38672985
H        4.58397830       3.18532885      -0.17758993
H        8.74691667       2.23638922      -0.00033000
