13
Properties=species:S:1:pos:R:3 atomization_energy=-1395.68 smiles=N.C.C.N.C.C.C.H.H.H.H.H.H pbc="F F F"
N        0.99999962       0.00000000       0.00000000
C        2.15100915       0.00000000       0.00000000
C        3.59500859       0.00000000       0.00000000
N        4.17814839      -1.22779949       0.61784973
C        4.61781794      -0.84766964       1.97474921
C        4.69682790       0.63384975       1.95549924
C        4.12524840       1.11280961       0.84909966
H        3.97892832       0.09533996      -1.02166958
H        5.01257808      -1.46415944       0.08343997
H        5.58818757      -1.29991954       2.20117917
H        3.89001839      -1.18652958       2.71883901
H        5.12104822       1.22982949       2.75185883
H        4.01952842       2.16100904       0.60485979
