17
Properties=species:S:1:pos:R:3 atomization_energy=-1646.88 smiles=C.C.C.O.C.C.O.H.H.H.H.H.H.H.H.H.H pbc="F F F"
C        0.86600964       0.20867992      -0.27204991
C        2.31608906       0.08134997       0.12222995
C        2.57710909       0.12863995       1.60922934
O        2.01069923      -1.01943960       2.23360904
C        3.20581866      -0.80847970      -0.71965972
C        3.33502866       0.68194976      -0.82539970
O        4.51179844       1.24877957      -0.23469991
H        0.74114970       0.26131990      -1.35905943
H        0.43269981       1.11648961       0.15790994
H        0.29182990      -0.65208976       0.08254997
H        2.14230928       1.02787958       2.05732915
H        3.64637869       0.12290995       1.84267928
H        1.04605960      -0.92263965       2.18560907
H        2.76238886      -1.34304952      -1.55202938
H        3.99148836      -1.36350942      -0.21771991
H        2.96933885       1.14926958      -1.73549931
H        5.29086817       1.10157961      -0.79891968
