17
Properties=species:S:1:pos:R:3 atomization_energy=-1749.78 smiles=C.C.C.C.C.C.C.H.H.H.H.H.H.H.H.H.H pbc="F F F"
C        0.80265967       0.80946965       1.09118961
C        2.29634918       0.77347971       1.07478960
C        3.04600869       1.20654954       0.04941998
C        4.54984798       1.16075949       0.03183999
C        5.15741774       2.56125890      -0.07659997
C        6.62755717       2.50261913      -0.10748996
C        7.82689672       2.45757902      -0.13153995
H        0.40700984      -0.20452992       1.20355953
H        0.38852986       1.23823957       0.17319994
H        0.45408981       1.41092940       1.93625923
H        2.77551892       0.36442986       1.96195917
H        2.56294901       1.60753936      -0.83983967
H        4.86643791       0.54857976      -0.82227969
H        4.93223783       0.65882972       0.93018965
H        4.83496816       3.17561864       0.77282970
H        4.79501807       3.05794875      -0.98486959
H        8.89176692       2.41836901      -0.15212995
