15
Properties=species:S:1:pos:R:3 atomization_energy=-1506.06 smiles=C.C.C.O.C.O.C.H.H.H.H.H.H.H.H pbc="F F F"
C       -1.61334941       0.86401963       0.49202980
C       -1.12065951      -0.35849985      -0.23626990
C       -0.21507991      -1.36282951       0.38331985
O        1.04426956      -1.25007945      -0.27172989
C        1.67658930      -0.00947000       0.04621998
O        0.82624968       1.13868958       0.13033995
C       -0.46858981       0.97131959      -0.47647982
H       -2.56513900       1.28462953       0.19193992
H       -1.39823941       0.96476963       1.54915937
H       -1.71160934      -0.76957968      -1.04416957
H       -0.09707997      -1.22476949       1.46460947
H       -0.59841979      -2.37345909       0.21391991
H        2.19186915      -0.11712995       1.00655961
H        2.43441904       0.18401994      -0.71836974
H       -0.64712975       1.45823936      -1.42872948
