19
Properties=species:S:1:pos:R:3 atomization_energy=-1854.7 smiles=C.C.C.C.C.C.O.H.H.H.H.H.H.H.H.H.H.H.H pbc="F F F"
C        0.88229964       0.95992961      -1.04518956
C        2.36676903       0.78222967      -1.07091959
C        3.19255865       1.27226946      -0.13003995
C        4.69668811       1.14953958      -0.06491997
C        5.10594822       0.44720981       1.23159947
C        5.35667768       0.45628982      -1.26066954
O        5.20585777       2.48322899      -0.00583000
H        0.55450980       1.48060942      -1.95022918
H        0.54759977       1.53848941      -0.17860994
H        0.39126983      -0.01758000      -1.01341961
H        2.75654891       0.21607991      -1.91259927
H        2.75460899       1.83151930       0.69735976
H        4.71771791       0.97664964       2.10991915
H        6.19670761       0.43540982       1.34127941
H        4.74412790      -0.58630978       1.26405949
H        5.12698810       0.97677959      -2.19823926
H        5.04107789      -0.58864977      -1.35364945
H        6.44897730       0.47576983      -1.16468955
H        4.85859798       2.95173874      -0.78430970
