19
Properties=species:S:1:pos:R:3 atomization_energy=-1848.59 smiles=C.C.C.C.C.C.O.H.H.H.H.H.H.H.H.H.H.H.H pbc="F F F"
C        1.00478962      -0.31541988       0.24776989
C        2.41433903       0.10897995      -0.18368993
C        2.98294884      -0.91571966      -1.16959953
C        2.50506902       1.51869945      -0.76383970
C        1.48731941       2.14654920      -1.38074945
C        3.84144841       2.20430909      -0.61024977
O        4.08613832       2.45091898       0.76631968
H        0.56446975       0.41927983       0.93063962
H        1.04124960      -1.27515954       0.77542972
H        0.33289987      -0.43934982      -0.60820974
H        3.02869877       0.07758997       0.72589968
H        2.41011904      -0.93116965      -2.10376921
H        2.95350885      -1.92352925      -0.74100972
H        4.02644835      -0.69579972      -1.41851940
H        0.51737979       1.68154937      -1.52148935
H        1.59832939       3.15039864      -1.78126930
H        3.87567841       3.16453878      -1.13593956
H        4.65130836       1.58430936      -1.00544960
H        3.27279873       2.84424891       1.12589954
