15
Properties=species:S:1:pos:R:3 atomization_energy=-1544.2 smiles=C.C.C.C.C.C.O.H.H.H.H.H.H.H.H pbc="F F F"
C        3.03847888      -1.00416958      -2.34217910
C        3.31232869      -0.53177980      -1.27436949
C        3.64571859       0.04450998       0.03845998
C        4.43815808       1.33575942      -0.11905996
C        3.68877867       2.57658903      -0.62959973
C        4.21535842       3.24564864       0.63545975
O        4.65630805       1.97535922       1.17254954
H        2.79408899      -1.42816943      -3.28940868
H        4.23532817      -0.67949975       0.61257973
H        2.72481901       0.22573991       0.60512978
H        5.40517776       1.17559959      -0.61493979
H        2.59944898       2.48752897      -0.66886973
H        4.06260843       2.99404889      -1.56750940
H        5.05790788       3.92860842       0.49196981
H        3.45632859       3.71394846       1.26745952
