17
Properties=species:S:1:pos:R:3 atomization_energy=-1719.69 smiles=C.C.C.C.C.C.O.H.H.H.H.H.H.H.H.H.H pbc="F F F"
C        3.13747878      -1.72155927      -1.21914957
C        2.88141882      -0.85953968      -0.01511999
C        2.24505907      -1.33919945       1.06676962
C        3.32955862       0.58415979      -0.09326996
C        4.84731826       0.72726972      -0.15892995
C        5.28349807       2.17096906      -0.17064993
O        4.52234841       3.13235872      -0.14220994
H        2.72871904      -1.25010948      -2.11843924
H        2.67274894      -2.70855904      -1.12324956
H        4.21139833      -1.87491927      -1.36176947
H        1.90481926      -2.36962896       1.11744960
H        2.03805925      -0.71396971       1.93086918
H        2.95144882       1.14450960       0.77239967
H        2.86945882       1.05196958      -0.97307960
H        5.24632817       0.26437990      -1.06788960
H        5.32001798       0.24708990       0.70496975
H        6.37533744       2.32580911      -0.21389992
