15
Properties=species:S:1:pos:R:3 atomization_energy=-1517.16 smiles=C.C.C.C.O.C.O.H.H.H.H.H.H.H.H pbc="F F F"
C        2.58379890      -0.34652986       1.55124942
C        2.60946906       0.05550998       0.08431997
C        3.08137872       1.45572942      -0.10293996
C        4.17976836       1.89102923      -0.69214975
O        4.29476833       3.25863865      -0.70431975
C        3.07871890       3.63441869      -0.02258999
O        2.28433922       2.49171893       0.36171985
H        2.24383905      -1.38227946       1.65263940
H        1.90243927       0.28894988       2.12703920
H        3.58042863      -0.27222988       1.99959917
H        1.60486931      -0.04776998      -0.34155988
H        3.25798865      -0.63812972      -0.46412982
H        4.97941822       1.34108954      -1.15530951
H        2.48372911       4.27067826      -0.68702976
H        3.33948862       4.20214837       0.87748964
