19
Properties=species:S:1:pos:R:3 atomization_energy=-1849.7 smiles=C.C.C.O.C.C.C.H.H.H.H.H.H.H.H.H.H.H.H pbc="F F F"
C        0.90197965       0.14021995      -0.25604990
C        2.36352910       0.26389990       0.06987997
C        2.71299880       0.02248999       1.51033946
O        3.22613864      -0.40423984      -0.86417967
C        3.32204874       1.02921958      -0.86044965
C        2.82250880       1.68180927      -2.11579923
C        4.63818814       1.54930938      -0.35767987
H        0.71398971      -0.00740000      -1.32176954
H        0.37007984       1.04003961       0.06756998
H        0.46314983      -0.71861974       0.26224989
H        3.78018844      -0.15164994       1.66925933
H        2.19011924      -0.86110969       1.89003921
H        2.41164917       0.88232967       2.11608916
H        2.02627917       1.11449960      -2.60764899
H        3.63190850       1.78354924      -2.84625898
H        2.44036902       2.68240894      -1.89063925
H        5.13118790       0.86370964       0.33671988
H        4.49280799       2.50807908       0.14877993
H        5.33390780       1.70657937      -1.18912960
