17
Properties=species:S:1:pos:R:3 atomization_energy=-1722.74 smiles=C.C.C.C.C.C.O.H.H.H.H.H.H.H.H.H.H pbc="F F F"
C        0.90247964       0.08553996      -0.05362998
C        2.41344905      -0.08710996      -0.04048998
C        3.12985888       1.26353956       0.02736999
C        4.62483830       1.10577954       0.03074999
C        5.37915787       1.14259959       1.14026956
C        5.31303799       0.93880961      -1.27713946
O        4.71207830       0.92074963      -2.34441904
H        0.40998985      -0.89146968      -0.07730997
H        0.58086977       0.64966972      -0.93464961
H        0.55973980       0.61698973       0.83971969
H        2.71777897      -0.63717976      -0.93890965
H        2.69458897      -0.70229971       0.82324965
H        2.81153895       1.79581935       0.93320962
H        2.82339878       1.89816920      -0.81343970
H        4.92343803       1.27363950       2.11769916
H        6.45955754       1.03986960       1.11712952
H        6.41031762       0.83309966      -1.23413956
