21
Properties=species:S:1:pos:R:3 atomization_energy=-2046.1 smiles=C.C.C.C.C.C.C.H.H.H.H.H.H.H.H.H.H.H.H.H.H pbc="F F F"
C        3.32177875      -1.37226947       0.60939973
C        2.58518899      -0.09202997       1.01966960
C        2.35321910      -0.09648996       2.53438890
C        3.30682862       1.17723949       0.48543982
C        2.48201906       2.44669899       0.72234970
C        4.69534823       1.37234947       1.05286958
C        5.81403766       1.36814941       0.31704987
H        3.47662864      -1.40301945      -0.47449981
H        2.73773888      -2.25751918       0.88501965
H        4.29881824      -1.45460945       1.09748957
H        1.59623933      -0.12853995       0.54305976
H        3.29554866      -0.10062996       3.09194888
H        1.79222931      -0.98981963       2.83175877
H        1.76836924       0.77147967       2.85398890
H        3.38740860       1.06044961      -0.60508978
H        2.41265901       2.70270899       1.78508934
H        1.46511943       2.32846918       0.33279989
H        2.93433874       3.30298865       0.20878992
H        4.77931802       1.53780938       2.12598925
H        5.79115778       1.21536952      -0.75740967
H        6.78412720       1.51996943       0.78085970
