19
Properties=species:S:1:pos:R:3 atomization_energy=-1904.94 smiles=C.C.C.C.C.C.C.H.H.H.H.H.H.H.H.H.H.H.H pbc="F F F"
C        3.06946869      -2.48266907      -1.28024944
C        2.97081877      -1.68810935      -0.00729000
C        2.49512893      -2.23388912       1.12323959
C        3.39068865      -0.23428990      -0.07358997
C        4.89255823      -0.05184998      -0.32675986
C        5.27781810       1.40191941      -0.33312987
C        5.79102758       2.03784918      -1.39386941
H        2.52406906      -1.98020928      -2.08525920
H        2.64555899      -3.48648873      -1.17026960
H        4.11401840      -2.59815907      -1.58405942
H        2.17798917      -3.27217875       1.16460956
H        2.40539893      -1.65918929       2.04056919
H        3.11912874       0.27585989       0.86065965
H        2.81437895       0.26201990      -0.86528968
H        5.17472817      -0.51933980      -1.27770947
H        5.46783767      -0.55869976       0.45758983
H        5.13424817       1.95336918       0.59400979
H        5.95846753       1.53014936      -2.33912917
H        6.05615758       3.08954870      -1.33719947
