15
Properties=species:S:1:pos:R:3 atomization_energy=-1554.0 smiles=C.C.C.C.C.C.O.H.H.H.H.H.H.H.H pbc="F F F"
C        0.94348966      -0.03743999       0.00726000
C        2.43611900      -0.00277000       0.00901000
C        3.13901875       1.13798949       0.00000000
C        4.54501836       1.13798949       0.00000000
C        5.73517759       1.13798949       0.00000000
C        7.17917702       1.13798949       0.00000000
O        7.67018689       2.47143907      -0.04144998
H        0.59450979      -1.07445955      -0.03805999
H        0.53936980       0.48830981      -0.86376963
H        0.54179981       0.41117984       0.92137963
H        2.95034890      -0.96108964       0.01839999
H        2.63022885       2.09780915      -0.00597000
H        7.57828684       0.60146978      -0.86609966
H        7.57640698       0.66171974       0.90100963
H        7.20324740       2.91677876      -0.76876969
