17
Properties=species:S:1:pos:R:3 atomization_energy=-1727.42 smiles=C.C.C.C.O.C.C.H.H.H.H.H.H.H.H.H.H pbc="F F F"
C        0.95647961       0.11306995       0.04989998
C        2.43671904       0.03712998      -0.03116999
C        3.22716866      -1.03215962      -0.14467994
C        2.83092885      -2.46560895      -0.20719992
O        4.59233804      -0.75353973      -0.16954994
C        4.64661802       0.67773974      -0.33432986
C        3.28719877       1.25123955       0.04510998
H        0.49119982      -0.87541964      -0.01209000
H        0.56346977       0.72010969      -0.77160968
H        0.65062977       0.57016979       0.99543962
H        3.71159849      -3.11428877      -0.22436991
H        2.25000905      -2.66409903      -1.11240954
H        2.23223913      -2.73978881       0.66633973
H        4.88790827       0.88946964      -1.38323945
H        5.44935794       1.08308953       0.28997990
H        2.98286885       2.04001923      -0.64706976
H        3.29397866       1.65321939       1.06345954
