17
Properties=species:S:1:pos:R:3 atomization_energy=-1723.6 smiles=C.C.C.C.O.C.C.H.H.H.H.H.H.H.H.H.H pbc="F F F"
C        1.52841937       0.60802976      -1.51259947
C        1.79225934       1.19035958      -0.13070995
C        2.89626876       2.22197909      -0.14745994
C        2.48088912       3.61557863      -0.47483980
O        1.32212949       3.91667845      -0.73909970
C        4.16966829       1.89638925       0.14801995
C        5.38746764       2.76181885       0.20707992
H        0.71497973      -0.12278995      -1.46274941
H        2.41592897       0.09571996      -1.89917928
H        1.24258950       1.38437948      -2.22861918
H        2.05117921       0.37252985       0.55406979
H        0.86877967       1.62602930       0.27019990
H        3.26911873       4.38035808      -0.46788980
H        4.37758849       0.85070966       0.37852984
H        5.19796787       3.81694856       0.00648000
H        6.12350782       2.40958914      -0.52332979
H        5.83848756       2.68941895       1.20212958
