15
Properties=species:S:1:pos:R:3 atomization_energy=-1580.3 smiles=C.C.C.O.C.C.C.H.H.H.H.H.H.H.H pbc="F F F"
C        1.04007960       0.00121000       0.04366998
C        2.37888901      -0.02352999       0.05195998
C        3.29113867       1.16157956       0.06225998
O        4.54354827       0.74278973      -0.51531979
C        4.54299819      -0.64477973      -0.51532979
C        5.62040775      -1.33152946      -0.90592965
C        3.23976882      -1.22947951      -0.07773997
H        0.46014983      -0.91487965      -0.01521999
H        0.49244981       0.93748966       0.09306996
H        3.48709862       1.49581944       1.08682958
H        2.89869897       1.99658924      -0.52600980
H        5.62634762      -2.41561910      -0.92043964
H        6.51960733      -0.81249971      -1.22014956
H        2.84627892      -1.93408918      -0.81687968
H        3.35281877      -1.72444935       0.89232962
