15
Properties=species:S:1:pos:R:3 atomization_energy=-1602.41 smiles=C.C.C.O.C.C.C.H.H.H.H.H.H.H.H pbc="F F F"
C        0.92406962       0.07883997      -0.00918999
C        2.40620916       0.01886999      -0.00214000
C        3.27557866       1.09036954       0.00680000
O        4.56333811       0.66824975       0.01250000
C        4.53265816      -0.68599974       0.00654000
C        3.23267881      -1.15014959      -0.00350000
C        2.80892884      -2.57140893      -0.01403000
H        0.56611975       1.11343955      -0.00000000
H        0.51714979      -0.42784982       0.87169965
H        0.52632979      -0.40928984      -0.90469966
H        3.13905887       2.16250915       0.01023000
H        5.49870787      -1.17214959       0.00991000
H        1.71910938      -2.66811892      -0.01017999
H        3.19621871      -3.09223881       0.86764967
H        3.18860866      -3.07613881      -0.90837966
