17
Properties=species:S:1:pos:R:3 atomization_energy=-1759.05 smiles=C.C.C.C.C.C.C.H.H.H.H.H.H.H.H.H.H pbc="F F F"
C        1.01091957      -0.22968991      -0.00046000
C        2.49343907      -0.04353999      -0.00087000
C        3.13901875       1.13798949       0.00000000
C        2.44381914       2.47242896       0.00257000
C        4.54501836       1.13798949       0.00000000
C        5.73517759       1.13798949       0.00000000
C        7.17917702       1.13798949       0.00000000
H        0.77056970      -1.29756946      -0.01174000
H        0.55804975       0.21968991      -0.88923964
H        0.56187976       0.20042992       0.89993962
H        3.07735883      -0.96477960      -0.00166000
H        1.35291945       2.38930903      -0.00028000
H        2.73032892       3.05122892      -0.88273965
H        2.72616898       3.04538872       0.89294966
H        7.57318723       2.15885918      -0.01167999
H        7.57319681       0.61742973      -0.87824966
H        7.57319681       0.63766973       0.88993967
