15
Properties=species:S:1:pos:R:3 atomization_energy=-1510.34 smiles=C.C.C.C.O.C.O.H.H.H.H.H.H.H.H pbc="F F F"
C        0.96902962      -0.02645999       0.13978994
C        2.45779905       0.13107995      -0.08427996
C        3.19634866       1.10738953       0.83750965
C        4.12714846      -0.07986997       1.12116960
O        3.19126873      -0.99284962       0.47245981
C        5.54492790      -0.06948997       0.47765982
O        5.89544780       0.52416980      -0.54322977
H        0.57649977      -0.86079963      -0.45013982
H        0.43622983       0.88004967      -0.16441993
H        0.73779969      -0.21890992       1.19266955
H        2.70601882       0.25540990      -1.14583952
H        2.63393888       1.45344949       1.70973932
H        3.64852855       1.96461924       0.33217988
H        4.18784826      -0.31419989       2.19146921
H        6.29194751      -0.65332972       1.04025958
