17
Properties=species:S:1:pos:R:3 atomization_energy=-1723.12 smiles=C.C.O.C.C.C.C.H.H.H.H.H.H.H.H.H.H pbc="F F F"
C        1.01345960      -0.01359000      -0.04178998
C        2.52821890      -0.01610999       0.09166997
O        2.93602885      -1.19818955       0.81077969
C        3.30826868      -0.80729967       2.14849921
C        4.56381804      -1.55757941       2.55295897
C        3.48992851       0.66775972       2.07747919
C        3.03697877       1.11945954       0.90759964
H        0.68588973      -0.87704964      -0.63084978
H        0.65355972       0.89822963      -0.52818978
H        0.52642980      -0.10404996       0.93634963
H        3.00315881      -0.03657998      -0.89439962
H        2.48225903      -1.05974965       2.82283885
H        5.39459801      -1.34475944       1.87080930
H        4.39084850      -2.63841902       2.50909900
H        4.87204825      -1.29537947       3.57013856
H        3.89529842       1.27602945       2.87183881
H        3.02381893       2.15148909       0.59317975
