13
Properties=species:S:1:pos:R:3 atomization_energy=-1458.75 smiles=C.C.C.C.O.C.C.H.H.H.H.H.H pbc="F F F"
C        1.01661961       0.04785998       0.00476000
C        2.49984904      -0.04379998       0.00241000
C        3.24484875      -1.15624957       0.00042000
C        4.63671806      -0.68390975       0.00049000
O        5.62588788      -1.38976941       0.00014000
C        4.63102799       0.78605968       0.00142000
C        3.33987872       1.12681954       0.00239000
H        0.55526975      -0.94517965      -0.00260000
H        0.66178976       0.58837978      -0.87884964
H        0.66423977       0.57427976       0.89764965
H        2.95039887      -2.18932919      -0.00002000
H        5.51008801       1.40255944       0.00137000
H        2.96341891       2.13967923       0.00286000
