15
Properties=species:S:1:pos:R:3 atomization_energy=-1478.87 smiles=N.N.C.C.C.C.C.H.H.H.H.H.H.H.H pbc="F F F"
N        0.89013964       1.10406961      -0.80404970
N        2.21421914       0.98062960      -1.04482961
C        2.93408893       1.16868950       0.01462000
C        4.43232823       1.09961962      -0.05958998
C        4.99728782       2.51248907      -0.01539999
C        6.46687767       2.49991894      -0.05866998
C        7.66605674       2.49561896      -0.09862996
H        0.40554985       1.25877946      -1.69325931
H        0.50880980       0.21323991      -0.47244981
H        2.49275904       1.42275945       0.99658961
H        4.73330794       0.58670979      -0.98012961
H        4.78739817       0.50793979       0.79160971
H        4.66111799       3.02225877       0.89569963
H        4.60830808       3.09680878      -0.85806966
H        8.73155676       2.49417891      -0.13879995
