17
Properties=species:S:1:pos:R:3 atomization_energy=-1693.51 smiles=C.C.C.C.C.O.C.H.H.H.H.H.H.H.H.H.H pbc="F F F"
C        0.70573974       1.07613957      -0.43452981
C       -0.52247978       0.30095987      -0.04198998
C        0.81569971      -0.38347986      -0.08546996
C        1.57426935      -0.89282968       1.11748960
C        1.44011946      -0.25872990       2.50948910
O        1.31869942      -1.56378941       3.13148868
C        1.09472957      -2.16562923       1.83284934
H        0.81714967       1.35927946      -1.47494937
H        1.08613958       1.81081931       0.26584990
H       -1.24016952       0.06200998      -0.81951969
H       -0.97670964       0.51893980       0.91687962
H        0.98331964      -1.07353955      -0.90795965
H        2.63437895      -0.97893961       0.83521968
H        0.54777980       0.34524988       2.69738884
H        2.32533902       0.27882989       2.86181899
H        1.71817929      -3.05021884       1.67818933
H        0.04026998      -2.42605905       1.69614938
