17
Properties=species:S:1:pos:R:3 atomization_energy=-1719.92 smiles=C.C.C.C.C.O.C.H.H.H.H.H.H.H.H.H.H pbc="F F F"
C        1.67306940      -0.07667997      -0.00815999
C        0.81963967      -1.22172953       0.53070979
C       -0.41977983      -1.52952938      -0.30751989
C       -1.50018944      -0.49161979      -0.20537992
C       -1.34777946       0.81110968       0.07164997
O       -0.18921993       1.52874943       0.18462993
C        0.89029968       1.07154954      -0.62855975
H        2.37216918      -0.46369981      -0.75886973
H        2.28551912       0.30489987       0.81829967
H        1.44546939      -2.12055908       0.59719977
H        0.51611981      -0.99058962       1.56111936
H       -0.83918967      -2.47311909       0.06269998
H       -0.15709994      -1.69406930      -1.35804947
H       -2.51768911      -0.86929966      -0.29082988
H       -2.19426908       1.46182941       0.26196990
H        1.56935936       1.92230923      -0.75837970
H        0.53552982       0.82055967      -1.63744931
