19
Properties=species:S:1:pos:R:3 atomization_energy=-1861.52 smiles=C.C.C.C.C.C.O.H.H.H.H.H.H.H.H.H.H.H.H pbc="F F F"
C        1.06844952      -0.06457997       0.16209993
C        2.58546907      -0.17191992       0.14072995
C        3.24196864       1.20861953       0.04289998
C        4.77229816       1.12152955      -0.02239999
C        5.37925779       2.47249911      -0.38942986
C        5.32970801       0.70093970       1.31877954
O        6.00507766      -0.31026989       1.48012935
H        0.61829977      -1.06168957       0.18401994
H        0.69821970       0.45545981      -0.72700969
H        0.72783974       0.48177982       1.04702956
H        2.88837887      -0.78666969      -0.71508975
H        2.91877873      -0.69005975       1.04707959
H        2.93287875       1.81931934       0.90076966
H        2.86897888       1.71121937      -0.85832969
H        5.07571792       0.38159983      -0.77169970
H        5.12259804       3.24127877       0.34756987
H        5.02413788       2.80654885      -1.36993945
H        6.47245722       2.40808903      -0.43029983
H        5.09870782       1.36454940       2.17073919
