19
Properties=species:S:1:pos:R:3 atomization_energy=-1860.65 smiles=C.C.C.C.C.O.C.H.H.H.H.H.H.H.H.H.H.H.H pbc="F F F"
C        2.05706913      -0.34562986      -1.47745944
C        2.42346913       0.07405997      -0.06161997
C        3.14856873       1.41635944      -0.01561999
C        2.33228897       2.60887885      -0.47200981
C        3.09424888       3.76165849       0.14802994
O        3.67408844       3.27034859       1.36377941
C        3.52988870       1.84313928       1.39322950
H        1.58853932      -1.33450949      -1.46711941
H        2.94613875      -0.39820986      -2.11298914
H        1.34950945       0.35529985      -1.92985923
H        3.06549876      -0.69701974       0.38099985
H        1.51125946       0.11299995       0.54652976
H        4.06017848       1.36233948      -0.62592976
H        1.31843952       2.56464897      -0.05465998
H        2.25061919       2.69967900      -1.55904936
H        3.91113852       4.09151827      -0.50234981
H        2.45248899       4.62004805       0.36498984
H        4.46785848       1.38945941       1.72649928
H        2.74907890       1.60313933       2.12351918
