17
Properties=species:S:1:pos:R:3 atomization_energy=-1642.5 smiles=C.C.C.O.C.C.O.H.H.H.H.H.H.H.H.H.H pbc="F F F"
C        1.04849958       0.06733997      -0.11781995
C        2.53573913       0.02047999      -0.04612998
C        3.38555875      -0.68938975      -1.07295957
O        2.72860903      -1.27227955      -2.20892902
C        3.43596874       0.82243966      -0.96267964
C        2.91225874       1.70527936      -2.05065916
O        4.59680834       1.38366942      -0.31931987
H        0.66742974       0.81629969       0.58431977
H        0.63173975      -0.90347964       0.16971993
H        0.66164971       0.31787988      -1.10829957
H        2.84864881      -0.08521997       0.98884961
H        4.24523822      -1.23865957      -0.69991972
H        1.88444931      -0.84764964      -2.42916904
H        2.04339921       1.29354944      -2.56959895
H        3.69242864       1.87364929      -2.80044900
H        2.62508887       2.67796892      -1.63835935
H        5.09613808       0.72386974       0.19018992
