17
Properties=species:S:1:pos:R:3 atomization_energy=-1727.17 smiles=C.C.C.C.C.C.O.H.H.H.H.H.H.H.H.H.H pbc="F F F"
C        3.04066886      -0.82620969      -0.96171964
C        2.57381894       0.07298997       0.17608993
C        2.96529877       1.51511937      -0.03457999
C        2.05896919       2.46055904      -0.33530985
C        4.41844849       1.85092925       0.15996994
C        4.92516801       3.21200885      -0.23990990
O        5.18141797       1.01656959       0.64889973
H        2.67763887      -1.84731928      -0.80683966
H        4.13274845      -0.86638965      -1.02085959
H        2.65996887      -0.47460980      -1.92640923
H        2.97678893      -0.29132987       1.12874950
H        1.48284936      -0.01447000       0.25989990
H        1.00918959       2.20500905      -0.45496982
H        2.30821910       3.50796868      -0.46343982
H        4.61238828       3.45237859      -1.26017951
H        6.02024782       3.20814869      -0.22317992
H        4.56799816       3.96834832       0.46408982
