17
Properties=species:S:1:pos:R:3 atomization_energy=-1715.78 smiles=C.C.C.C.C.C.O.H.H.H.H.H.H.H.H.H.H pbc="F F F"
C        0.90618967       0.04455998       0.12960995
C        2.44015907       0.00962000       0.06271997
C        2.98105888      -0.65149975       1.33840952
C        3.01312892      -0.69936970      -1.15304950
C        2.33966916      -1.29787944      -2.14556914
C        2.94126877       1.45208942      -0.02275999
O        4.02060840       1.84207924       0.41677983
H        0.47175981       0.52753978      -0.75375970
H        0.56539978       0.61585979       1.00150963
H        0.48390981      -0.96376965       0.20723991
H        2.66532889      -0.10058996       2.23225906
H        4.07737839      -0.67945975       1.35020941
H        2.62243888      -1.68296937       1.43405947
H        4.10415831      -0.71133973      -1.21171955
H        1.25665949      -1.34504949      -2.18022912
H        2.87613879      -1.77193935      -2.96347871
H        2.29699919       2.14840913      -0.58872976
