17
Properties=species:S:1:pos:R:3 atomization_energy=-1655.09 smiles=C.C.C.C.O.C.O.H.H.H.H.H.H.H.H.H.H pbc="F F F"
C        1.15618951       0.43019985      -1.59303939
C        2.61899885       0.49748981      -1.29925944
C        3.15136885       1.16252959      -0.25879990
C        4.61753836       1.25609944       0.09058996
O        5.39727777       0.49112980      -0.82693968
C        5.11824785       2.71143890       0.07803997
O        5.11840783       3.22568873      -1.25998951
H        0.82105967      -0.61124976      -1.58052944
H        0.95741960       0.84412968      -2.58605903
H        0.56082975       0.98977964      -0.86440967
H        3.26765874      -0.04930998      -1.98103920
H        2.48323908       1.68214929       0.42563984
H        4.76241788       0.82916966       1.08869961
H        5.62816794       1.10574951      -1.55024944
H        6.15552765       2.75041903       0.42581985
H        4.51116812       3.36549867       0.71205969
H        4.19395846       3.20915876      -1.56956943
