20
Properties=species:S:1:pos:R:3 atomization_energy=-1917.65 smiles=N.C.C.C.C.C.C.H.H.H.H.H.H.H.H.H.H.H.H.H pbc="F F F"
N        0.30549988       1.48064941       0.11483996
C        1.68370933       1.01993959       0.22921991
C        2.64177907       2.20984902       0.21289991
C        4.09691842       1.75137928       0.33871986
C        5.05544815       2.94301893       0.32724986
C        6.48389742       2.49620891       0.45589981
C        7.42759714       2.72520887      -0.46517983
H       -0.31783989       0.67528973       0.07887997
H        0.18082993       1.97695925      -0.76648969
H        1.90956927       0.33960987      -0.59900974
H        1.79631935       0.45867981       1.16284955
H        2.40090895       2.89160896       1.03858959
H        2.51717890       2.77534885      -0.71938973
H        4.33924827       1.07191958      -0.48792980
H        4.22179842       1.18272959       1.26869948
H        4.82542803       3.61381862       1.16394958
H        4.91347801       3.52257866      -0.59380976
H        6.75330746       1.96482918       1.36661940
H        7.21083702       3.25739870      -1.38620952
H        8.44687663       2.38288896      -0.31252986
