17
Properties=species:S:1:pos:R:3 atomization_energy=-1726.17 smiles=C.C.C.C.C.C.O.H.H.H.H.H.H.H.H.H.H pbc="F F F"
C        2.46237911      -1.12974961       2.24437904
C        3.21655863      -1.24344945       0.94764965
C        3.49980854      -2.43759892       0.40043983
C        3.60538848       0.05132998       0.27916990
C        4.58316832       0.85113963       1.12661957
C        5.95690762       0.26984989       1.33905953
O        4.26380829       1.93153925       1.62764940
H        3.08980885      -0.66975977       3.01447889
H        2.14325905      -2.10833918       2.61953909
H        1.56528939      -0.51685980       2.11137914
H        3.20390876      -3.36732858       0.87902968
H        4.02750840      -2.52392902      -0.54721976
H        2.71127892       0.66074971       0.10472996
H        4.06907846      -0.11315996      -0.70054973
H        6.41371753       0.04121998       0.37371985
H        5.88936763      -0.63274977       1.95018918
H        6.58554755       0.99892961       1.85825922
