15
Properties=species:S:1:pos:R:3 atomization_energy=-1604.99 smiles=C.C.C.C.C.C.O.H.H.H.H.H.H.H.H pbc="F F F"
C        0.95862959      -0.12787995      -0.00374000
C        2.42333892       0.06652997      -0.00428000
C        3.24192877       1.18213951      -0.00084000
C        2.82446891       2.60424908       0.00493000
C        4.57276824       0.67770971      -0.00410000
C        4.47307821      -0.69329975      -0.00938000
O        3.17088869      -1.07197964      -0.00954999
H        0.43016981       0.83007969       0.00863000
H        0.64939972      -0.69783975       0.87780966
H        0.64620975      -0.67679975      -0.89753963
H        3.69187855       3.27240862       0.01154000
H        2.22164904       2.82390899       0.89214965
H        2.22823917       2.83279887      -0.88455965
H        5.49253787       1.24485948      -0.00285000
H        5.19386800      -1.49791946      -0.01326000
