15
Properties=species:S:1:pos:R:3 atomization_energy=-1541.82 smiles=C.C.C.C.C.O.O.H.H.H.H.H.H.H.H pbc="F F F"
C        0.80146968      -0.20398992       0.12971995
C        2.27482911       0.11724995      -0.11534995
C        2.74243880      -0.51637980      -1.40538947
C        3.74093856      -1.40617939      -1.49381946
C        2.50790901       1.62908933      -0.15682993
O        3.80041859       1.96693918      -0.39673984
O        1.65104934       2.47782910       0.03753999
H        0.45061981       0.26250989       1.05668956
H        0.64387972      -1.28416953       0.21785992
H        0.16700994       0.16666994      -0.68411975
H        2.84931900      -0.26558991       0.73840970
H        2.22252917      -0.21677991      -2.31544914
H        4.28692839      -1.75401929      -0.62227973
H        4.02267853      -1.82596928      -2.45659896
H        4.37192820       1.19028956      -0.55676980
