17
Properties=species:S:1:pos:R:3 atomization_energy=-1761.47 smiles=C.C.C.C.C.C.C.H.H.H.H.H.H.H.H.H.H pbc="F F F"
C        2.69190896      -1.30904952       0.19110992
C        2.21531905      -0.11976995      -0.19827991
C        2.92172873       1.15728955      -0.15048994
C        2.25145920       2.26959904      -0.50176979
C        4.32136808       1.16588951       0.32710988
C        5.40719792       0.63592978      -0.58021977
C        5.34261778       2.10111923      -0.27722989
H        2.07304914      -2.19761903       0.11641996
H        3.69096865      -1.43924942       0.59173976
H        1.19539952      -0.09396997      -0.58068979
H        1.21956958       2.24590917      -0.83622969
H        2.72408902       3.24524870      -0.45730981
H        4.42196801       0.97128962       1.39183940
H        5.14107777       0.31626988      -1.58180939
H        6.20343779       0.05565998      -0.12892995
H        6.09479757       2.51692909       0.38383984
H        5.05699797       2.76332880      -1.08584953
