17
Properties=species:S:1:pos:R:3 atomization_energy=-1695.1 smiles=C.C.C.O.C.C.C.H.H.H.H.H.H.H.H.H.H pbc="F F F"
C        0.83016964       0.10030996       0.26199990
C        2.32548915       0.02251999      -0.04164998
C        3.16956875       0.95707965       0.85976968
O        3.51992868      -0.14690994       1.73404929
C        3.07756877      -1.09136953       0.72426968
C        2.63059902       0.13332994      -1.50202944
C        2.37865913      -0.87850963      -2.34205899
H        0.63649973       0.05729998       1.34004942
H        0.28609990      -0.73171970      -0.19870992
H        0.40048986       1.03645960      -0.11220996
H        2.61900895       1.73708937       1.39465946
H        4.06873831       1.39616941       0.41333983
H        3.93663836      -1.54703940       0.21960992
H        2.45354903      -1.88049932       1.15474959
H        3.05559879       1.06055963      -1.87783925
H        1.94734919      -1.81748931      -2.00785923
H        2.59961905      -0.78439972      -3.40155857
