17
Properties=species:S:1:pos:R:3 atomization_energy=-1711.57 smiles=C.C.C.C.C.C.O.H.H.H.H.H.H.H.H.H.H pbc="F F F"
C        1.07284955      -0.07791997      -0.00383000
C        2.55359888       0.14246995      -0.07611997
C        3.45193853      -0.57629980      -1.12442959
C        4.45348822      -0.27763989       0.02760999
C        4.56995827       1.23737950       0.11153995
C        3.07856876       1.57206940       0.03312999
O        3.32325867      -0.63739973       0.94757963
H        0.65516972       0.33992985       0.91789961
H        0.82826966      -1.14501957      -0.02643999
H        0.56521981       0.39754985      -0.84911966
H        3.62022859      -0.06054998      -2.07287920
H        3.23303864      -1.63370939      -1.30068953
H        5.32680771      -0.92057962       0.13374995
H        5.01265782       1.56615942       1.05634960
H        5.13535793       1.66229940      -0.72301970
H        2.83565879       2.17966919      -0.84379970
H        2.73005892       2.07881920       0.93825965
