11
Properties=species:S:1:pos:R:3 atomization_energy=-1123.32 smiles=C.C.C.C.O.H.H.H.H.H.H pbc="F F F"
C        1.78756925      -0.73912973      -0.78645969
C        2.65766887      -0.21470991       0.08633996
C        3.18313887       1.18754950       0.01931999
C        4.69699798       1.23127951      -0.05020998
O        5.45171774       0.33252986       0.31077988
H        1.45548946      -1.76836924      -0.68389971
H        1.39001946      -0.16705993      -1.61880935
H        3.02879869      -0.83769965       0.89992965
H        2.87097886       1.75277933       0.90370964
H        2.80063900       1.70602929      -0.86627964
H        5.11280809       2.19327918      -0.39731985
