17
Properties=species:S:1:pos:R:3 atomization_energy=-1702.2 smiles=C.C.C.C.O.C.C.H.H.H.H.H.H.H.H.H.H pbc="F F F"
C        0.94013965      -0.18015993       0.35508985
C        2.23413918       0.43686984      -0.13701994
C        3.06018870       1.22268953       0.88610965
C        4.04004850       0.04494998       0.80668965
O        3.27200868      -0.56651976      -0.26360990
C        5.44990802       0.40547983       0.50504981
C        5.88363769       0.59719977      -0.74686973
H        0.52203978      -0.85199965      -0.40126984
H        0.19801992       0.59754975       0.56073979
H        1.09077957      -0.75668971       1.27383947
H        2.10020919       0.97043964      -1.08563959
H        2.59595899       1.36769950       1.86585932
H        3.42820854       2.18466913       0.51577979
H        3.99723848      -0.59968977       1.69421931
H        6.13249738       0.50655979       1.34275946
H        5.22443793       0.49127981      -1.60382933
H        6.91955743       0.85400965      -0.94292961
