17
Properties=species:S:1:pos:R:3 atomization_energy=-1729.65 smiles=C.C.C.C.C.C.O.H.H.H.H.H.H.H.H.H.H pbc="F F F"
C        1.00934963       0.04636998       0.02958999
C        2.49447893       0.01144000      -0.03606998
C        3.26967865      -1.07825953      -0.12841995
C        4.72084833      -0.72973972      -0.08978996
C        4.71845825       0.78192972      -0.30579987
C        3.31430873       1.25962956       0.07244997
O        2.86591887       2.24463919      -0.84069968
H        0.58186976      -0.96137963       0.00008000
H        0.59919974       0.60849979      -0.81486967
H        0.67985970       0.52365981       0.95838963
H        2.90547886      -2.09543912      -0.17651992
H        5.15021822      -0.99838962       0.88092967
H        5.28190789      -1.23964947      -0.87880965
H        4.94836785       1.01650959      -1.35352947
H        5.48744784       1.27413949       0.29983987
H        3.28294875       1.66601940       1.08847958
H        2.73413886       1.80059926      -1.69577934
