19
Properties=species:S:1:pos:R:3 atomization_energy=-1847.05 smiles=C.C.C.C.C.O.C.H.H.H.H.H.H.H.H.H.H.H.H pbc="F F F"
C        0.64433972       0.47346983      -0.99802961
C        1.87345928      -0.25895990      -0.48008980
C        3.02920873       0.71108973      -0.22100992
C        4.26298822       0.01382999       0.30754988
C        4.73287797       0.27346990       1.53833940
O        4.82757789      -0.85033968      -0.60625978
C        6.02070756      -1.53061945      -0.23371990
H       -0.16431993      -0.23602990      -1.19947947
H        0.86785967       1.00655961      -1.92778923
H        0.28286990       1.20051958      -0.26370990
H        2.17080908      -1.01635958      -1.21521951
H        1.61287931      -0.79027967       0.44313983
H        2.69685894       1.48636938       0.48095981
H        3.29262868       1.23032949      -1.15097951
H        4.22746830       0.98156960       2.18893908
H        5.62095782      -0.19291993       1.94565920
H        6.31134775      -2.18080922      -1.06408962
H        5.85611794      -2.16226918       0.64520976
H        6.83584754      -0.82065966      -0.05991998
