17
Properties=species:S:1:pos:R:3 atomization_energy=-1621.35 smiles=C.C.C.C.C.N.H.H.H.H.H.H.H.H.H.H.H pbc="F F F"
C        1.05891960      -0.06570997      -0.00712000
C        2.54803901      -0.02852999      -0.05787998
C        3.28051880      -0.58995975      -1.24922947
C        3.25058878       0.90304966      -1.01779957
C        4.47904837       1.63617933      -0.58884974
N        5.26411803       1.92280922      -1.77874927
H        0.68638972       0.71676971       0.66102973
H        0.71989969      -1.03259962       0.37713985
H        0.60872979       0.08570996      -0.99358959
H        2.98529880      -0.18797993       0.92162963
H        2.70401884      -0.97892964      -2.08122922
H        4.20496843      -1.12618960      -1.06712958
H        2.63595905       1.50464939      -1.68038928
H        5.07522789       1.04881960       0.11788995
H        4.19763845       2.57274906      -0.09729997
H        5.53152759       1.04332956      -2.21801925
H        6.13182769       2.37847897      -1.50319937
