15
Properties=species:S:1:pos:R:3 atomization_energy=-1540.89 smiles=C.C.C.C.C.O.C.H.H.H.H.H.H.H.H pbc="F F F"
C        3.43839868      -0.95189961      -2.44220901
C        3.53280868      -0.51230979      -1.32943952
C        3.64618868       0.02571999       0.03407999
C        4.37883804       1.35511953       0.03050999
C        3.61027866       2.57389893      -0.49503980
O        3.85476847       3.30527881       0.73035970
C        4.37544822       2.11276911       1.36260948
H        3.35399867      -1.34427950      -3.43021861
H        4.18962845      -0.69103974       0.66108972
H        2.64525897       0.13186995       0.46989981
H        5.38979766       1.27859945      -0.39157985
H        2.53723898       2.44006899      -0.66354977
H        4.06076843       3.07009876      -1.35928943
H        5.36218809       2.28505913       1.80170927
H        3.68935852       1.74506935       2.13198918
