13
Properties=species:S:1:pos:R:3 atomization_energy=-1353.79 smiles=C.C.C.C.O.C.O.H.H.H.H.H.H pbc="F F F"
C        0.99999962       0.00000000       0.00000000
C        2.19015911       0.00000000       0.00000000
C        3.63415853       0.00000000       0.00000000
C        4.22686825       1.11722957       0.83011968
O        5.52207778       0.62722977       1.17861949
C        5.33109785      -0.78454967       1.29344952
O        4.13196849      -1.18531952       0.63178978
H       -0.06573997      -0.01079999       0.00174000
H        4.03949842       0.01914999      -1.01808963
H        3.67251844       1.29571949       1.75912925
H        4.30953829       2.06225921       0.28502989
H        6.18700749      -1.30136944       0.84896965
H        5.26100779      -1.05570957       2.35062917
