15
Properties=species:S:1:pos:R:3 atomization_energy=-1587.05 smiles=C.C.O.C.C.C.C.H.H.H.H.H.H.H.H pbc="F F F"
C        0.94092963       0.05646998       0.05747998
C        2.27115920       0.00590000       0.13752995
O        2.97716894       1.13603960       0.52150979
C        4.23646820       1.25295956      -0.15293995
C        5.13505816       0.04300998       0.10478996
C        4.36361842      -1.22558957      -0.09130996
C        3.02445884      -1.21189946      -0.09767996
H        0.41711984       0.98433963       0.26652991
H        0.34418987      -0.80455966      -0.21665991
H        4.72692799       2.16143927       0.21398992
H        4.05615834       1.39720939      -1.22753946
H        5.51626761       0.06387998       1.13147960
H        5.99256758       0.07577997      -0.57514980
H        4.90982829      -2.15310905      -0.22671992
H        2.47305903      -2.13412920      -0.25322990
