15
Properties=species:S:1:pos:R:3 atomization_energy=-1522.21 smiles=C.C.O.C.O.C.C.H.H.H.H.H.H.H.H pbc="F F F"
C        1.02053957       0.09407997       0.05235998
C        2.53258902      -0.01874999      -0.04372999
O        3.12237877       1.07196954       0.66704973
C        4.34965845       0.54674979       1.16909954
O        4.26381838      -0.86807964       1.34744942
C        3.14633888      -1.21281946       0.60998974
C        2.70848889      -2.47528914       0.59245979
H        0.52068981      -0.69349972      -0.51927981
H        0.68718973       1.06440957      -0.33116986
H        0.68431972       0.03756998       1.09383960
H        2.85555890       0.04787998      -1.08939958
H        5.15548791       0.77209971       0.46076981
H        4.57951809       1.02204959       2.12740912
H        1.82137924      -2.76746880       0.04235998
H        3.24033884      -3.24826859       1.13809951
