19
Properties=species:S:1:pos:R:3 atomization_energy=-1866.88 smiles=C.C.C.C.C.C.O.H.H.H.H.H.H.H.H.H.H.H.H pbc="F F F"
C        1.05917963      -0.06233998       0.05321998
C        2.56979905       0.05835998       0.02370999
C        3.10716874       1.18264948       0.89043966
C        4.51026830       0.69985973       1.16641953
C        4.29485815      -0.79538969       1.34314944
C        5.49905761      -1.62684938       0.94420962
O        3.16876886      -1.15085952       0.52174979
H        0.73244970      -0.90988967      -0.55973980
H        0.58231979       0.84743964      -0.32428988
H        0.69872972      -0.25410989       1.06905953
H        2.91000896       0.18232993      -1.01198958
H        2.55053911       1.25578946       1.83251929
H        3.07331876       2.15604922       0.39406986
H        5.14926794       0.90756967       0.29982987
H        4.96547793       1.16843956       2.04413917
H        4.01904849      -1.01748958       2.38097907
H        5.73591793      -1.48983944      -0.11744996
H        5.28750812      -2.69282896       1.08043955
H        6.37871767      -1.36446941       1.53834937
