19
Properties=species:S:1:pos:R:3 atomization_energy=-1862.81 smiles=C.C.C.C.O.C.C.H.H.H.H.H.H.H.H.H.H.H.H pbc="F F F"
C        0.97518959       0.03513999       0.17818993
C        2.49600907       0.01268000       0.00823999
C        2.97969882      -1.32746945      -0.56269978
C        2.70059900      -1.44875941      -2.05655917
O        3.26138881      -0.34699986      -2.76716903
C        2.70330903       0.90065965      -2.35995911
C        2.98174875       1.16184956      -0.88355966
H        0.65273977       0.98273960       0.62390972
H        0.65046973      -0.77160968       0.84442964
H        0.44607984      -0.08351997      -0.77210967
H        2.93266881       0.14034994       1.00609960
H        2.53235890      -2.16907910      -0.02183999
H        4.06581834      -1.38625948      -0.40953984
H        3.16214869      -2.36287909      -2.44406895
H        1.62715937      -1.51243936      -2.26632908
H        3.16740879       1.68526937      -2.96650895
H        1.63020930       0.91158963      -2.57997911
H        4.06778829       1.25656954      -0.74996969
H        2.53536896       2.11408918      -0.57480978
