17
Properties=species:S:1:pos:R:3 atomization_energy=-1621.18 smiles=C.C.C.C.C.N.H.H.H.H.H.H.H.H.H.H.H pbc="F F F"
C        0.93786961      -0.03220999       0.15205994
C        2.44816908       0.04035998      -0.02799999
C        2.86323885       0.01355000      -1.49698937
C        3.15662870       1.10388958       0.84811967
C        4.14611847      -0.01540999       1.20366955
N        3.13580885      -1.00225962       0.77615972
H        0.65289975      -0.05711998       1.21024947
H        0.52468979      -0.92801960      -0.32445986
H        0.45314981       0.84074964      -0.29849990
H        3.95149840       0.03613998      -1.62233934
H        2.45553892       0.88177965      -2.02649920
H        2.49001897      -0.88788966      -1.99565927
H        2.57288910       1.46009943       1.70548930
H        3.58160853       1.96612920       0.32712988
H        5.05612793      -0.02145999       0.59291979
H        4.42832827      -0.07750997       2.25798903
H        3.50597855      -1.79062928       0.24761990
