15
Properties=species:S:1:pos:R:3 atomization_energy=-1547.65 smiles=C.C.C.C.O.C.C.H.H.H.H.H.H.H.H pbc="F F F"
C        0.98763962       0.01682999       0.25219990
C        2.46990893      -0.14796993       0.04522999
C        3.00521884      -1.37216943      -0.11895995
C        3.32198869       1.10211959       0.01350999
O        2.81604887       1.98660916      -0.97881963
C        3.33997865       1.77067933       1.32414953
C        3.35832868       2.32353914       2.39053914
H        0.78000966       0.51829979       1.20249949
H        0.46745980      -0.94713963       0.27236989
H        0.54820978       0.60725977      -0.55795979
H        2.39298903      -2.26895913      -0.10388996
H        4.07073829      -1.51096941      -0.27780990
H        4.34964836       0.85785966      -0.27853990
H        2.07856914       2.46810905      -0.57048975
H        3.37904860       2.81235878       3.33750858
