16
Properties=species:S:1:pos:R:3 atomization_energy=-1655.06 smiles=N.C.C.C.C.C.C.H.H.H.H.H.H.H.H.H pbc="F F F"
N        3.29266880      -0.85915967      -2.43783914
C        3.42020863      -0.46461981      -1.35469952
C        3.58035848       0.03441998       0.01767999
C        4.33799822       1.35399943       0.03020998
C        3.59204849       2.61483892      -0.48896981
C        4.30522847       3.40587874       0.62633974
C        4.41084828       2.07729916       1.40237941
H        4.12701825      -0.70715974       0.61137977
H        2.59444904       0.14983994       0.48255981
H        5.33718811       1.24973956      -0.41978982
H        2.50240894       2.57994907      -0.37246986
H        3.83075839       2.92060889      -1.51090935
H        5.27450802       3.81868839       0.32399986
H        3.71557852       4.19152825       1.10486963
H        5.33561811       1.93188923       1.96674918
H        3.55711852       1.88853923       2.06396912
