17
Properties=species:S:1:pos:R:3 atomization_energy=-1710.18 smiles=C.C.C.C.C.O.C.H.H.H.H.H.H.H.H.H.H pbc="F F F"
C       -0.87705967       0.00094000      -1.15056960
C       -0.59177976       1.04203958      -0.02451999
C       -1.24262950      -0.00148000       0.92453964
C       -0.59210974      -1.04350961      -0.02752999
C        0.89790968      -1.20249949       0.27120989
O        1.61068933      -0.00146000      -0.05476998
C        0.89868963       1.19925956       0.27423988
H       -1.90920919       0.00167000      -1.52082938
H       -0.19954993       0.00180000      -2.00889922
H       -1.12727954       1.99248923      -0.09956996
H       -0.90453961      -0.00314000       1.96458922
H       -2.33952912      -0.00143000       0.91730966
H       -1.12832949      -1.99335927      -0.10465996
H        1.07178963      -1.44914938       1.32406954
H        1.32532943      -2.00626917      -0.33645985
H        1.32654945       2.00489926      -0.33114986
H        1.07261955       1.44345944       1.32800944
