13
Properties=species:S:1:pos:R:3 atomization_energy=-1385.24 smiles=C.O.C.C.C.C.O.H.H.H.H.H.H pbc="F F F"
C       -1.32231949       0.64558978       0.20431992
O       -1.41656938      -0.76365967       0.00031000
C       -0.33191988      -1.47928947       0.41360985
C        0.94329965      -1.08793959       0.51662980
C        1.50780946       0.16316993       0.07542997
C        0.86366965       1.19001957      -0.49483979
O       -0.47440983       1.36355951      -0.69033971
H       -2.33133920       1.03919960       0.03994998
H       -1.08248961       0.88022965       1.25219954
H       -0.63574974      -2.49637898       0.63783973
H        1.67001935      -1.81940930       0.86694964
H        2.59439908       0.21685991       0.12615995
H        1.40043949       2.03172914      -0.91857964
