17
Properties=species:S:1:pos:R:3 atomization_energy=-1686.99 smiles=C.C.C.C.O.C.C.H.H.H.H.H.H.H.H.H.H pbc="F F F"
C       -1.69851928       0.65624976       0.34062988
C       -1.66221929      -0.74052972      -0.37503985
C       -0.19367993      -0.78779970       0.12193995
C        1.16261955      -1.03688957      -0.48093981
O        1.99703927       0.01099000       0.06584997
C        1.10917957       1.03365960       0.57356976
C       -0.21023991       0.74661968      -0.08977996
H       -2.37054895       1.39233940      -0.10731996
H       -1.86525927       0.62032978       1.42315939
H       -1.78120924      -0.70854970      -1.46376946
H       -2.33217896      -1.49569945       0.04281998
H       -0.17007993      -1.11203962       1.17767956
H        1.57942940      -2.00759921      -0.19938992
H        1.16709956      -0.95101960      -1.57313941
H        1.06663955       0.94759963       1.66453935
H        1.51026944       2.01633920       0.31020987
H       -0.14938994       1.07173954      -1.14358961
