19
Properties=species:S:1:pos:R:3 atomization_energy=-1776.32 smiles=N.C.C.C.N.C.C.H.H.H.H.H.H.H.H.H.H.H.H pbc="F F F"
N        1.51841936       3.16096879       1.77687924
C        2.40055896       3.27966870       0.61652973
C        3.19591869       1.98981919       0.41977983
C        4.06376839       2.02168926      -0.84339969
N        5.08108804       3.07491879      -0.75035973
C        6.43091744       2.57476897      -0.50696980
C        6.01831748       3.06120888      -1.87031927
H        1.03106961       4.04622835       1.91148926
H        2.08436923       3.02309878       2.61376904
H        3.07137883       4.13315849       0.76712973
H        1.79175934       3.48493866      -0.26934990
H        2.50126891       1.14350949       0.33624988
H        3.82517859       1.79481924       1.29862950
H        3.42154876       2.21986909      -1.71083935
H        4.49558818       1.02425957      -0.99531963
H        6.58278755       1.51229945      -0.35853985
H        7.07120700       3.21565882       0.08861997
H        6.37409749       4.03097845      -2.19478913
H        5.87064768       2.33436919      -2.65987904
