15
Properties=species:S:1:pos:R:3 atomization_energy=-1614.03 smiles=C.C.C.C.C.C.C.H.H.H.H.H.H.H.H pbc="F F F"
C        0.94239965      -0.03688999       0.00912000
C        2.43518916      -0.00238000       0.01696000
C        3.13901875       1.13798949       0.00000000
C        4.54501836       1.13798949       0.00000000
C        5.73517759       1.13798949       0.00000000
C        7.14117694       1.13798949       0.00000000
C        7.84432675       2.27529920       0.00003000
H        0.59360979      -1.07217961      -0.04134999
H        0.54165977       0.49365980      -0.86008963
H        0.53799976       0.40901985       0.92467962
H        2.94917884      -0.96022963       0.03379998
H        2.63154905       2.09834914      -0.01656000
H        7.65477703       0.18120993      -0.00003000
H        7.35973719       3.24701880       0.00007000
H        8.92905644       2.25482908       0.00003000
