15
Properties=species:S:1:pos:R:3 atomization_energy=-1547.95 smiles=C.C.C.O.C.C.C.H.H.H.H.H.H.H.H pbc="F F F"
C        0.75991968       0.58392979       0.72478974
C        1.74607931       0.71353974      -0.17279993
C        3.10822879       1.18047955       0.10422996
O        3.93123847       1.76172927      -0.91824966
C        3.38803867       2.67060892       0.05070998
C        4.19897834       3.26561864       1.11869952
C        5.38165796       3.87419849       0.95529964
H       -0.22037991       0.22707992       0.42470984
H        0.91041963       0.82792970       1.77099929
H        1.53860940       0.45035982      -1.20835951
H        3.63495868       0.58350979       0.84315966
H        2.59722897       3.32452865      -0.30388988
H        3.78504859       3.20731877       2.12327921
H        5.83590772       3.95772846      -0.02700999
H        5.91752780       4.29289855       1.80037936
