19
Properties=species:S:1:pos:R:3 atomization_energy=-1853.99 smiles=C.C.C.C.C.C.O.H.H.H.H.H.H.H.H.H.H.H.H pbc="F F F"
C        0.74914968       0.54534979       0.67359974
C        2.23399914       0.68528974       0.77144970
C        2.99726889       1.27982943      -0.15761994
C        4.49817810       1.40466944      -0.05420998
C        5.01712812       2.85090894       0.03744998
C        4.64484817       3.72056862      -1.15578957
O        4.55510807       3.47574876       1.23429954
H        0.47554983      -0.51349979       0.63830977
H        0.34532987       1.03452958      -0.21856992
H        0.27512989       0.99448959       1.55166943
H        2.69481884       0.26499989       1.66392934
H        2.53302909       1.68228933      -1.05591957
H        4.94195813       0.91475966      -0.92975962
H        4.84861828       0.85556969       0.82936969
H        6.11009743       2.81469890       0.10742996
H        3.56500867       3.89563857      -1.20943948
H        4.97978814       3.27048864      -2.09582923
H        5.11002791       4.70833825      -1.06030957
H        3.58520855       3.38924859       1.25152948
