13
Properties=species:S:1:pos:R:3 atomization_energy=-1447.48 smiles=C.C.C.C.C.C.C.H.H.H.H.H.H pbc="F F F"
C        1.04223962       0.29877989       0.14652994
C        2.36252911       0.10126996      -0.00404000
C        2.96795885      -1.28278953      -0.03868998
C        3.37398861      -1.64379936      -1.40672947
C        3.70661848      -1.94382930      -2.52127903
C        3.21890884       1.24285950      -0.08428996
C        3.94067843       2.19941916      -0.15196994
H        0.61716977       1.29781952       0.18569993
H        0.34968987      -0.53356977       0.22437991
H        2.25290909      -2.02648923       0.33451987
H        3.83229837      -1.32466945       0.63530973
H        4.00107846      -2.20444913      -3.51158863
H        4.58107801       3.04831878      -0.21529991
