15
Properties=species:S:1:pos:R:3 atomization_energy=-1527.58 smiles=C.C.O.C.C.C.O.H.H.H.H.H.H.H.H pbc="F F F"
C        0.99628960      -0.00786000       0.00376000
C        2.51904892      -0.00612000      -0.09203996
O        2.91782895      -1.16111956      -0.88259967
C        3.30443880      -0.62097978      -2.09112918
C        3.40233878       0.70243975      -2.13679912
C        3.07034882       1.24676950      -0.80212971
O        4.27399844       1.70729928      -0.20075992
H        0.63899976       0.83385967       0.60413976
H        0.64694978      -0.93887963       0.46253981
H        0.53311980       0.04634998      -0.98727960
H        2.95160879      -0.12271995       0.90867961
H        3.51863851      -1.34068946      -2.86397895
H        3.71676851       1.28802944      -2.98609894
H        2.35345906       2.07153919      -0.83213966
H        4.91462813       0.97514960      -0.25143990
