17
Properties=species:S:1:pos:R:3 atomization_energy=-1700.9 smiles=C.C.C.C.O.C.C.H.H.H.H.H.H.H.H.H.H pbc="F F F"
C        4.40554831      -1.72343926      -1.35317948
C        3.99926849      -0.96707960      -0.32711987
C        2.91238895       0.06660997      -0.42446984
C        3.37060863       1.45119945       0.03722999
O        2.25610916       2.34159899      -0.07419997
C        2.43830898       3.63480854       0.32483987
C        3.53333857       4.21999828       0.82141968
H        5.18525795      -2.46708913      -1.22137955
H        3.96771850      -1.62915935      -2.34165905
H        4.45735848      -1.11201956       0.64976977
H        2.06263921      -0.25413991       0.19137993
H        2.52483892       0.13843995      -1.44860940
H        4.19417824       1.80421933      -0.59593975
H        3.70489859       1.40103940       1.08100956
H        1.51299941       4.18298835       0.18216993
H        4.46878807       3.69601855       0.97320961
H        3.50718873       5.27094813       1.09301952
