15
Properties=species:S:1:pos:R:3 atomization_energy=-1491.51 smiles=C.C.O.C.C.C.O.H.H.H.H.H.H.H.H pbc="F F F"
C        0.93554961       0.03604999      -0.12528995
C        2.40527907       0.10578996       0.08797997
O        3.17632870      -0.65321977      -0.84372967
C        3.31310865       0.78152971      -0.91500966
C        4.69700807       1.29636950      -0.57331977
C        5.90181765       1.05408960      -1.44824944
O        5.20756807       2.30517901      -1.46156938
H        0.44674981       0.89112966       0.35072985
H        0.53374981      -0.87860968       0.32064988
H        0.67301976       0.04093998      -1.18783955
H        2.69009899       0.07852997       1.13081950
H        2.83088898       1.26659945      -1.76035937
H        4.89672826       1.44157945       0.48425979
H        5.78875761       0.40215985      -2.30551915
H        6.87708705       1.02427957      -0.97934959
