11
Properties=species:S:1:pos:R:3 atomization_energy=-1104.19 smiles=C.C.C.C.O.H.H.H.H.H.H pbc="F F F"
C        0.99999962       0.00000000       0.00000000
C        2.44399905       0.00000000       0.00000000
C        3.63415853       0.00000000       0.00000000
C        5.07815797       0.00000000       0.00000000
O        5.56763771       1.33501945      -0.02458999
H        0.60596979       1.02086963       0.01167999
H        0.60590973      -0.52052980       0.87824966
H        0.60591977      -0.50028980      -0.88992963
H        5.47697761      -0.52467979      -0.87341967
H        5.47627764      -0.48738981       0.89450964
H        5.07593795       1.79586931      -0.72564969
