15
Properties=species:S:1:pos:R:3 atomization_energy=-1485.76 smiles=C.C.C.C.N.C.H.H.H.H.H.H.H.H.H pbc="F F F"
C        0.80329971       1.35008943      -0.63978975
C       -0.32660988       0.97159961       0.27821988
C       -1.38075941       0.00482000      -0.16796993
C       -0.73913970      -1.37455951       0.03594998
N        0.71727973      -1.17345957      -0.08298997
C        0.96955964       0.21724991       0.32497989
H        0.72328970       1.11587960      -1.69487927
H        1.33673947       2.27038909      -0.43376983
H       -0.59555974       1.60132935       1.11199963
H       -2.29735901       0.10441996       0.42146984
H       -1.62452933       0.16927994      -1.22371954
H       -0.96728961      -1.73598934       1.04609959
H       -1.10714956      -2.11082919      -0.68397970
H        1.20545946      -1.84341924       0.51012981
H        1.62310933       0.36770985       1.17795952
