21
Properties=species:S:1:pos:R:3 atomization_energy=-1991.34 smiles=C.C.C.C.C.C.O.H.H.H.H.H.H.H.H.H.H.H.H.H.H pbc="F F F"
C        0.91165965       1.95768922       1.03729961
C        2.42704895       2.05019916       1.13704956
C        3.10127882       1.49443944      -0.11883996
C        4.64107834       1.52252946      -0.05116998
C        5.22229816       0.71328974      -1.21816952
C        5.19225812       2.95563878      -0.06321998
O        6.61215740       2.95415886       0.02205999
H        0.44691982       2.33924903       1.95259919
H        0.58738976       0.92090960       0.89868963
H        0.53829978       2.55024893       0.19531993
H        2.76352889       1.49090945       2.01684917
H        2.69985891       3.09874870       1.29223947
H        2.76071894       2.05405920      -0.99891958
H        2.76971884       0.45756981      -0.25918991
H        4.96847815       1.02934960       0.87352968
H        4.94997823       1.15734948      -2.18112918
H        4.84763822      -0.31540988      -1.20102954
H        6.31429751       0.66434972      -1.16222957
H        4.81578796       3.54038871       0.78025972
H        4.91137811       3.47481867      -0.98508962
H        6.85469719       2.50170897       0.84775966
