19
Properties=species:S:1:pos:R:3 atomization_energy=-1845.15 smiles=C.C.C.C.C.O.C.H.H.H.H.H.H.H.H.H.H.H.H pbc="F F F"
C        1.68378932      -0.33651988       1.53644944
C        2.28092922      -0.05566998       0.16362993
C        2.62964900       1.39956945      -0.04430999
C        1.47868942       2.36663908      -0.08516997
C        3.90441843       1.78462934      -0.21568992
O        4.26727835       3.08524872      -0.44552982
C        5.60205771       3.35408875      -0.02430999
H        1.51940938      -1.41152944       1.66115937
H        0.71779972       0.16208994       1.66208934
H        2.35128902      -0.00018000       2.33563918
H        1.57489942      -0.37190984      -0.61439974
H        3.17189878      -0.68470976       0.04014998
H        0.73423973       2.03853919      -0.81806967
H        1.78564926       3.37921868      -0.36447985
H        0.99635962       2.42986901       0.89571963
H        4.73194838       1.08501961      -0.21220991
H        5.80521768       4.41411849      -0.20033991
H        6.32029744       2.76615895      -0.60498974
H        5.71904757       3.15354874       1.04559960
