17
Properties=species:S:1:pos:R:3 atomization_energy=-1643.55 smiles=C.C.C.O.C.C.O.H.H.H.H.H.H.H.H.H.H pbc="F F F"
C        1.48184937      -0.18620993       1.17718953
C        2.36992898       0.12010995      -0.01800999
C        3.35065857       1.20464948       0.29313987
O        3.55811851       2.14410916      -0.77301971
C        2.90980886       2.64297890       0.40628985
C        3.70510853       3.62420861       1.19265958
O        3.26965872       4.93891805       0.88129965
H        0.80929971      -1.01792959       0.94900965
H        0.87056965       0.68188971       1.44153945
H        2.07879914      -0.45461983       2.05399914
H        1.74303935       0.39315985      -0.87351965
H        2.92164874      -0.78489972      -0.30216987
H        4.20998830       0.86640965       0.85764966
H        1.85300922       2.86969879       0.36673986
H        4.77673819       3.55429872       0.98348959
H        3.55300855       3.46012870       2.26266901
H        3.40277859       5.05378781      -0.07664997
