13
Properties=species:S:1:pos:R:3 atomization_energy=-1338.98 smiles=N.C.N.C.C.C.C.H.H.H.H.H.H pbc="F F F"
N        1.90401924      -0.88793963       0.27737990
C        2.38207898       0.23364991      -0.14132995
N        2.94478879       1.20978947       0.64209972
C        4.08366850       1.94567926       0.08002997
C        2.74762900       2.60370909       0.21581992
C        2.55559911       3.57856870       1.24644954
C        2.39137915       4.39546818       2.11069911
H        1.54683943      -1.43266938      -0.51308981
H        2.36085918       0.46790980      -1.22182958
H        4.41844849       1.61707937      -0.89343963
H        4.85209792       2.13718922       0.81659965
H        2.14747904       2.72592902      -0.67923972
H        2.24361902       5.11117804       2.88460879
