17
Properties=species:S:1:pos:R:3 atomization_energy=-1727.47 smiles=C.C.C.O.C.C.C.H.H.H.H.H.H.H.H.H.H pbc="F F F"
C        0.99366964       0.02206999       0.02811999
C        2.49004900      -0.00422000      -0.03796998
C        3.20932884       1.09984962      -0.29727987
O        4.57613837       1.17455948      -0.33866987
C        5.25036799       0.03223999       0.20156992
C        4.62849811      -1.27510945      -0.26377989
C        3.16531873      -1.33043951       0.16787993
H        0.56635978      -0.87553962      -0.43235983
H        0.57969977       0.88716964      -0.50246979
H        0.66362975       0.06681997       1.07183959
H        2.77437889       2.06899922      -0.50884979
H        6.29480743       0.08490996      -0.12250996
H        5.24390781       0.10425996       1.29609950
H        5.17751794      -2.13417916       0.13654994
H        4.68040820      -1.32922946      -1.35919947
H        3.09674873      -1.60601931       1.22689955
H        2.65864892      -2.11273921      -0.40908984
