15
Properties=species:S:1:pos:R:3 atomization_energy=-1496.52 smiles=C.C.C.C.C.N.H.H.H.H.H.H.H.H.H pbc="F F F"
C        0.42275982       1.32660951       0.26288990
C       -1.05768961       1.05755960      -0.05348998
C       -1.40026942      -0.40417985      -0.00457000
C       -0.43668984      -1.33624944       0.04593998
C        1.02685959      -1.00131963       0.02470999
N        1.30922943       0.37045985      -0.40648985
H        0.67726971       2.34131916      -0.06273998
H        0.58969979       1.29137952       1.34705944
H       -1.30231947       1.43718939      -1.05258955
H       -1.68086934       1.60076930       0.66575975
H       -2.44736894      -0.69004972      -0.01460999
H       -0.70380972      -2.38784904       0.09697996
H        1.44406945      -1.17579956       1.02351961
H        1.53606943      -1.68453937      -0.66324975
H        2.27816922       0.59177976      -0.18690993
