19
Properties=species:S:1:pos:R:3 atomization_energy=-1782.15 smiles=N.C.C.N.C.C.C.H.H.H.H.H.H.H.H.H.H.H.H pbc="F F F"
N        0.39224985       0.99736964       0.20517991
C        1.81976924       0.68898974       0.29084988
C        2.68492897       1.88533929      -0.14549994
N        4.11139845       1.54786945      -0.06498997
C        4.93616814       2.68675888      -0.45925983
C        6.41321741       2.41603898      -0.37974983
C        7.02302737       1.30605952       0.06122998
H       -0.13897994       0.19198993       0.53495980
H        0.17432992       1.75809936       0.84843969
H        2.02975919      -0.17575993      -0.34850987
H        2.06374922       0.40565984       1.32139949
H        2.46834902       2.74006890       0.50638982
H        2.42360917       2.16805918      -1.17266952
H        4.30307810       0.77965968      -0.70722969
H        4.72086801       3.54559859       0.18761993
H        4.70154801       2.97811871      -1.49032947
H        7.04231709       3.23716880      -0.72086971
H        6.46535763       0.45391983       0.43503984
H        8.10646663       1.23594953       0.07262997
