15
Properties=species:S:1:pos:R:3 atomization_energy=-1544.19 smiles=C.C.C.C.O.C.O.H.H.H.H.H.H.H.H pbc="F F F"
C        0.87818967      -0.02368999       0.12571995
C        2.38966910       0.02410999      -0.04630998
C        2.81479882       0.03596999      -1.50768935
C        3.11736873       1.03725961       0.85390966
O        3.76613863      -0.04118998       1.57905936
C        3.15989866      -0.99817962       0.82901965
O        3.26703876      -2.19941916       0.91312966
H        0.59359975      -0.05534998       1.18330958
H        0.45704982      -0.91193967      -0.35723987
H        0.40746985       0.85927965      -0.31928988
H        3.90558849       0.04700998      -1.60998937
H        2.42330915       0.92105961      -2.02005920
H        2.44227916      -0.85114967      -2.03098918
H        2.48735890       1.63866934       1.51680936
H        3.85138850       1.68407938       0.36315984
