17
Properties=species:S:1:pos:R:3 atomization_energy=-1661.64 smiles=C.C.C.C.O.C.O.H.H.H.H.H.H.H.H.H.H pbc="F F F"
C        0.96602959       0.06216997       0.12898995
C        2.48145914       0.01791999      -0.05601998
C        2.98775878      -1.32528943      -0.57599978
C        2.71471895      -1.46505938      -2.06336921
O        3.23448879      -0.33814988      -2.75786885
C        2.65835899       0.86674967      -2.27255914
O        2.93138873       1.08149959      -0.89415965
H        0.65741975       1.05177957       0.48318982
H        0.64045975      -0.68581970       0.85910964
H        0.42604985      -0.11924995      -0.80494970
H        2.92965875       0.19297992       0.92914961
H        2.55971892      -2.16272918      -0.01531999
H        4.07579829      -1.35013952      -0.43354983
H        3.21037879      -2.35971915      -2.45349907
H        1.64414934      -1.56605938      -2.27500902
H        3.10760881       1.69471930      -2.82933891
H        1.58111939       0.89061963      -2.47328890
