15
Properties=species:S:1:pos:R:3 atomization_energy=-1558.58 smiles=C.C.C.C.C.C.O.H.H.H.H.H.H.H.H pbc="F F F"
C        0.99999962       0.00000000       0.00000000
C        2.19015911       0.00000000       0.00000000
C        3.63415853       0.00000000       0.00000000
C        4.22520842       1.13364952       0.82180966
C        5.58238798       0.57885976       1.17209951
C        5.27067814      -0.88443967       1.40411948
O        4.15279843      -1.21532953       0.56853979
H       -0.06539997      -0.01024999       0.00247000
H        4.01186840       0.05194998      -1.02842960
H        3.64993858       1.30405954       1.74102928
H        4.27039817       2.07944914       0.27345990
H        6.25956736       0.68776972       0.31629988
H        6.04584783       1.06021961       2.03726920
H        6.11646778      -1.53316938       1.15952950
H        4.97836802      -1.06816956       2.44305912
