15
Properties=species:S:1:pos:R:3 atomization_energy=-1521.71 smiles=N.N.C.C.C.C.C.H.H.H.H.H.H.H.H pbc="F F F"
N        1.06975963       0.06618997      -0.39746983
N        2.34816919       0.04649998       0.04827998
C        2.94960882       1.19219958       0.09035996
C        4.36303806       1.27704950       0.59906979
C        4.60162837       2.77765894       0.68985972
C        3.41059859       3.39088874       0.02881999
C        2.45502895       2.52458911      -0.31605988
H        0.71724971      -0.89385963      -0.44411982
H        0.46029981       0.54234977       0.27223988
H        5.03919802       0.80133966      -0.12016995
H        4.46137811       0.78354968       1.57107938
H        5.53012766       3.06102871       0.18403993
H        4.66664808       3.10427879       1.73329936
H        3.33319876       4.45717831      -0.14237995
H        1.51226942       2.71336897      -0.79687971
