13
Properties=species:S:1:pos:R:3 atomization_energy=-1422.25 smiles=C.C.C.C.C.C.O.H.H.H.H.H.H pbc="F F F"
C        0.99999962       0.00000000       0.00000000
C        2.19015911       0.00000000       0.00000000
C        3.59615871       0.00000000       0.00000000
C        4.35090850      -1.09523953      -0.00629000
C        5.77242773      -0.69066970       0.00248000
C        5.65062794       0.80606967      -0.25959990
O        4.29030812       1.20314950       0.00657000
H       -0.06469997       0.00627000       0.00062000
H        3.99067838      -2.11292922       0.00158000
H        6.22568735      -0.89403967       0.97717960
H        6.36264770      -1.18550952      -0.77292969
H        5.87462745       1.04437958      -1.30738943
H        6.32782751       1.38797949       0.37450986
