15
Properties=species:S:1:pos:R:3 atomization_energy=-1558.94 smiles=C.C.C.C.O.C.C.H.H.H.H.H.H.H.H pbc="F F F"
C        2.79432895      -1.05694959      -0.53045979
C        2.45563909       0.07418997       0.43396983
C        3.02738892       1.43281939       0.00000000
C        2.51700908       2.55146895       0.89533962
O        1.63696938       2.43030907       1.74358930
C        4.47138809       1.43281939       0.00000000
C        5.66154783       1.43281939       0.00000000
H        2.30373921      -1.98173916      -0.21072992
H        3.87142839      -1.24801955      -0.56331975
H        2.45289903      -0.82460965      -1.54380944
H        2.81597898      -0.19009992       1.43680938
H        1.36270940       0.14324994       0.50566979
H        2.66066883       1.66711931      -1.00728960
H        2.94576884       3.54862859       0.68876971
H        6.72787752       1.42656940       0.00176000
