14
Properties=species:S:1:pos:R:3 atomization_energy=-1324.33 smiles=C.C.C.N.N.C.H.H.H.H.H.H.H.H pbc="F F F"
C        1.19396956      -0.36745985       0.18131993
C        2.67466893      -0.22777992       0.28755989
C        3.58839851      -0.99410958      -0.62022972
N        3.50342874       0.46854981      -0.70513970
N        2.75718882       0.74950969      -1.78950930
C        3.12253874       1.85705926      -2.34084906
H        0.70593971       0.59005974       0.38961984
H        0.83883969      -1.09226959       0.92135964
H        0.86468963      -0.71795970      -0.80245970
H        2.98692886      -0.07458997       1.31376950
H        3.16924879      -1.57821935      -1.43087947
H        4.51122817      -1.38024945      -0.20739992
H        2.59916889       2.21456913      -3.24030881
H        3.94690849       2.48972904      -1.96249929
