19
Properties=species:S:1:pos:R:3 atomization_energy=-1848.59 smiles=C.C.C.C.O.C.C.H.H.H.H.H.H.H.H.H.H.H.H pbc="F F F"
C        2.90850885      -0.91863964      -0.59047974
C        2.63319905      -0.00466000       0.59718974
C        3.32717864       1.36638940       0.48863979
C        2.86702887       2.27587906       1.64403932
O        3.31349875       3.61681858       1.45768941
C        4.83671834       1.21568948       0.50748979
C        5.64416776       1.63446941      -0.47621980
H        2.34155912      -1.84942927      -0.48590982
H        3.96810835      -1.18225950      -0.66052974
H        2.60674893      -0.44278982      -1.52895937
H        2.93897886      -0.51419978       1.51948937
H        1.54813944       0.14468995       0.66600974
H        3.02666876       1.84186930      -0.45458984
H        3.23383878       1.92023922       2.61362899
H        1.77353926       2.30850902       1.69200939
H        4.27948816       3.58344853       1.34083947
H        5.27683804       0.73196970       1.37793948
H        5.25514816       2.11790909      -1.36766948
H        6.71904744       1.49488947      -0.41219983
