15
Properties=species:S:1:pos:R:3 atomization_energy=-1522.24 smiles=C.C.C.O.C.C.O.H.H.H.H.H.H.H.H pbc="F F F"
C        0.97716963      -0.01364999       0.32821988
C        2.43246903      -0.07915997      -0.11175996
C        2.85777891       1.21404958      -0.81512969
O        4.22619832       1.15072957      -1.24991948
C        4.51147798      -0.06728997      -1.81467934
C        3.73349858      -1.14956960      -1.71827934
O        2.57353911      -1.21445949      -0.98820963
H        0.79851967       0.83556966       0.99389964
H        0.69564971      -0.93343962       0.85148968
H        0.31143988       0.07056997      -0.53763981
H        3.07123879      -0.25687990       0.76402971
H        2.76689903       2.06977918      -0.13783994
H        2.23328908       1.41182947      -1.69546935
H        5.44979800      -0.04357998      -2.35212903
H        3.94431857      -2.09036916      -2.20867921
