17
Properties=species:S:1:pos:R:3 atomization_energy=-1699.52 smiles=C.C.C.O.C.C.C.H.H.H.H.H.H.H.H.H.H pbc="F F F"
C        0.88685965       0.06361998       0.09358996
C        2.39946915       0.04490998       0.01524000
C        3.14709865       1.01757961       0.93444964
O        4.02083852      -0.04139999       1.39900940
C        3.12627880      -1.04380956       0.83430964
C        3.74150858      -2.13026904       0.02798999
C        5.02375787      -2.09584916      -0.35497986
H        0.46333983      -0.78428970      -0.45410981
H        0.49028982       0.98225960      -0.35039986
H        0.53276982       0.00841999       1.12831953
H        2.74112895       0.12078996      -1.02569963
H        2.57376898       1.44481938       1.76326925
H        3.70269852       1.80795926       0.42233982
H        2.51763890      -1.47429937       1.64113941
H        3.11136880      -2.97127877      -0.24376991
H        5.67874774      -1.27034948      -0.09038996
H        5.45144774      -2.90381877      -0.93957966
