21
Properties=species:S:1:pos:R:3 atomization_energy=-2052.19 smiles=C.C.C.C.C.C.C.H.H.H.H.H.H.H.H.H.H.H.H.H.H pbc="F F F"
C        2.27605922      -0.66861973       1.48125942
C        2.80834899      -0.28182989       0.10245996
C        1.74478926      -0.52528980      -0.96965963
C        3.22559865       1.17087948       0.09746996
C        4.47326847       1.67704930       0.03106999
C        5.74140764       0.87025966      -0.02063999
C        4.69306817       3.16812870       0.01308999
H        3.04248892      -0.52505981       2.25144911
H        1.97919920      -1.72297927       1.50000940
H        1.40180939      -0.06875997       1.76019926
H        3.65360848      -0.93524965      -0.13041995
H        0.84085966       0.06709998      -0.78513968
H        1.45351939      -1.58128934      -0.99259963
H        2.12282905      -0.26206990      -1.96426926
H        2.39344902       1.87465924       0.15206994
H        5.58442783      -0.20178992       0.11285995
H        6.42262735       1.19154958       0.77481971
H        6.24220747       1.01890958      -0.98278962
H        3.75268862       3.72846860       0.03810998
H        5.22887795       3.46031870      -0.89588964
H        5.28584778       3.47465869       0.88104966
