17
Properties=species:S:1:pos:R:3 atomization_energy=-1720.37 smiles=C.C.C.C.C.C.O.H.H.H.H.H.H.H.H.H.H pbc="F F F"
C        1.02679960      -0.01451000       0.02656999
C        2.54174890       0.00146000       0.09741997
C        3.09599880       1.19375949       0.85918963
C        4.43209810       0.65276973       1.23730947
C        5.56359788       1.36035944       1.34848953
C        4.30648810      -0.83417969       1.34069943
O        3.00541894      -1.15536956       0.81429965
H        0.68174973      -0.90070967      -0.51698981
H        0.64347971       0.87725964      -0.47824980
H        0.58590977      -0.07123997       1.02786961
H        2.95804879      -0.04151998      -0.91775963
H        2.51628893       1.39267941       1.76786925
H        3.13358883       2.09800912       0.24594991
H        6.50861730       0.87950968       1.58032934
H        5.57095788       2.43728906       1.21006955
H        5.06260780      -1.35614942       0.74651969
H        4.34387805      -1.17540959       2.37917919
