19
Properties=species:S:1:pos:R:3 atomization_energy=-1846.33 smiles=C.C.C.O.C.C.C.H.H.H.H.H.H.H.H.H.H.H.H pbc="F F F"
C        0.90160967      -0.09874996       0.14065995
C        2.41689893      -0.02208999      -0.03156999
C        2.84308894      -0.03866998      -1.50293947
O        2.38355916       1.13643955      -2.16398908
C        3.10090865       1.07496963       0.83981967
C        4.18361843       0.04404998       1.20844946
C        3.18073870      -1.06601957       0.83817965
H        0.61889975      -0.15176993       1.19828947
H        0.49603982      -0.98771961      -0.35472986
H        0.40824983       0.78265971      -0.28217990
H        2.44374899      -0.91490961      -2.02592918
H        3.93258844      -0.06269998      -1.60745937
H        1.42017948       1.05821957      -2.26732907
H        2.50898898       1.40373947       1.70302933
H        3.46267875       1.96235924       0.31268987
H        5.06619797       0.07763997       0.56016978
H        4.51235811       0.05541998       2.25105900
H        3.60689868      -1.92289930       0.30840989
H        2.61961908      -1.44032940       1.70318930
