19
Properties=species:S:1:pos:R:3 atomization_energy=-1842.1 smiles=C.C.C.C.C.C.O.H.H.H.H.H.H.H.H.H.H.H.H pbc="F F F"
C        1.09280958      -0.21122992      -0.21959992
C        2.59859888      -0.16664994      -0.41877983
C        3.24869882       0.90921967       0.45016981
C        4.73114799       0.96585964       0.22863991
C        5.64455786       1.39430947       1.34812945
C        5.63544770      -0.03739999       0.89297963
O        6.77127748      -0.46566983       0.13056995
H        0.65124975      -0.99686958      -0.84086969
H        0.63186977       0.74177971      -0.49841981
H        0.84069968      -0.42267984       0.82474970
H        2.82004883       0.02169999      -1.47556948
H        3.02395873      -1.14769958      -0.17659993
H        3.02215885       0.71559971       1.50650945
H        2.82136877       1.89018922       0.20811992
H        4.97591788       1.29540950      -0.77468970
H        5.21509814       1.61118933       2.31970900
H        6.50237765       2.00867919       1.10393953
H        5.18667807      -0.76861968       1.55828934
H        7.10495731       0.23220991      -0.45980981
