15
Properties=species:S:1:pos:R:3 atomization_energy=-1550.92 smiles=C.C.C.C.O.C.C.H.H.H.H.H.H.H.H pbc="F F F"
C        1.03624959      -0.30485988      -0.12798995
C        2.50940911      -0.04781998      -0.12441995
C        3.13901875       1.13798949       0.00000000
C        2.43328910       2.47062908       0.10683996
O        2.35443912       2.88457876       1.46505938
C        4.54501836       1.13798949       0.00000000
C        5.73517759       1.13798949       0.00000000
H        0.80233965      -1.09239954       0.59545975
H        0.72077969      -0.64735975      -1.11789951
H        0.44126984       0.57014979       0.14240994
H        3.11490875      -0.95068962      -0.22101991
H        1.42004941       2.44118909      -0.30190987
H        2.97221871       3.24093863      -0.45551983
H        2.32348917       2.08145922       2.01185919
H        6.80028750       1.14097949       0.00196000
