17
Properties=species:S:1:pos:R:3 atomization_energy=-1721.5 smiles=C.C.C.C.C.C.O.H.H.H.H.H.H.H.H.H.H pbc="F F F"
C        1.13175956       0.18143992      -0.30316988
C        2.54379909      -0.06936997       0.22697991
C        3.15604884      -1.39007939      -0.26741991
C        3.77560863      -1.26271948      -1.62672940
C        4.00855832      -0.05572998      -2.16290909
C        3.69007842       1.22485957      -1.44931946
O        3.41737874       1.03176958      -0.05785998
H        0.76881972       1.15923957       0.03160999
H        0.44113982      -0.58795978       0.05571998
H        1.09397951       0.18423994      -1.39688943
H        2.46998892      -0.12215995       1.31991944
H        2.39913909      -2.18126922      -0.27219989
H        3.94896852      -1.70223927       0.42314984
H        4.04612842      -2.16843919      -2.16217910
H        4.45317836       0.02385999      -3.15059873
H        4.54819823       1.90061921      -1.51525942
H        2.84082881       1.72647935      -1.92362929
