19
Properties=species:S:1:pos:R:3 atomization_energy=-1868.5 smiles=C.C.C.C.C.C.O.H.H.H.H.H.H.H.H.H.H.H.H pbc="F F F"
C        3.00962883      -1.54656944       0.14589994
C        2.49245902      -0.25258990       0.76038971
C        3.29071879       0.98151964       0.31172988
C        2.63583893       2.25948914       0.83231970
C        4.73339827       0.94299963       0.80530966
C        5.76656760       1.61191932      -0.06769997
O        5.05094808       0.42865983       1.87744927
H        2.39278918      -2.38963908       0.47401982
H        4.04112848      -1.75187927       0.44689982
H        2.97133882      -1.50468939      -0.94716966
H        2.50911893      -0.34461987       1.85314926
H        1.44214946      -0.12997995       0.46846982
H        3.30651876       1.00814961      -0.78480970
H        2.57450907       2.25515913       1.92623929
H        1.62193940       2.36864915       0.43420983
H        3.20885875       3.14601867       0.54055979
H        5.52095794       2.66962887      -0.18890992
H        5.79744790       1.11772956      -1.04181962
H        6.75118738       1.53067938       0.39957985
