11
Properties=species:S:1:pos:R:3 atomization_energy=-1211.76 smiles=N.C.C.C.C.C.N.H.H.H.H pbc="F F F"
N        0.84302965       0.01302999      -0.07898997
C        2.00236927       0.00541000      -0.06036998
C        3.53577861      -0.01209000      -0.02681999
C        4.73601797      -0.02430999      -0.00190000
C        6.16654746      -0.03125999       0.02545999
C        6.91562711      -0.77665971      -1.04977960
N        6.87006719       0.67927972      -1.03908958
H        6.62706714       0.01919000       1.00740958
H        6.35909740      -1.26061946      -1.84319921
H        7.86253700      -1.23723945      -0.79809967
H        7.74436673       1.07395955      -0.68970971
