17
Properties=species:S:1:pos:R:3 atomization_energy=-1698.47 smiles=C.C.C.C.C.C.O.H.H.H.H.H.H.H.H.H.H pbc="F F F"
C        0.99999962       0.00000000       0.00000000
C        2.44399905       0.00000000       0.00000000
C        3.63415853       0.00000000       0.00000000
C        5.07815797       0.00000000       0.00000000
C        5.61824779      -0.79113968      -1.19317951
C        5.62241781       1.43588938      -0.00003000
O        7.03843724       1.45539938       0.16652994
H        0.60601976       1.02087959       0.01162999
H        0.60593976      -0.52051980       0.87824966
H        0.60600979      -0.50031980      -0.88994963
H        5.43991772      -0.50161981       0.90679962
H        5.31729785      -0.33635987      -2.14411925
H        5.23923817      -1.81947932      -1.18476956
H        6.71190747      -0.84020966      -1.17248948
H        5.18202811       2.02720926       0.81163970
H        5.38785774       1.94731929      -0.94069963
H        7.23188700       1.10300957       1.05224960
