15
Properties=species:S:1:pos:R:3 atomization_energy=-1575.19 smiles=C.C.C.C.C.O.C.H.H.H.H.H.H.H.H pbc="F F F"
C        1.77071933      -0.23937992       0.08421996
C        0.89441962      -1.36616949       0.65991973
C       -0.17549994      -1.06492963      -0.40910984
C       -1.46228941      -0.54666980       0.08220996
C       -1.38415945       0.78646972       0.13865995
O       -0.19290992       1.38820949      -0.24662989
C        0.57496976       0.25180989      -0.74697969
H        2.60661898      -0.59877974      -0.52599980
H        2.15325919       0.47002983       0.82345965
H        1.33798952      -2.36469916       0.59797978
H        0.58272977      -1.19085958       1.69637939
H       -0.24341991      -1.78095931      -1.23279956
H       -2.31915917      -1.14361951       0.35331987
H       -2.13992904       1.48351942       0.46535981
H        0.80271966       0.38726984      -1.81076934
