17
Properties=species:S:1:pos:R:3 atomization_energy=-1746.72 smiles=C.C.C.C.C.C.C.H.H.H.H.H.H.H.H.H.H pbc="F F F"
C        1.46349946      -0.25416990       0.63978975
C        2.18054907       0.42978984      -0.26050989
C        3.00855870       1.64097930       0.06422997
C        4.48348839       1.41361950      -0.28340989
C        5.36430767       2.61322905       0.06912997
C        5.09144775       3.77748850      -0.78816968
C        4.86976818       4.72843795      -1.48533936
H        0.87709966      -1.11787958       0.34128985
H        1.43979938       0.02962999       1.68725938
H        2.16304914       0.11055996      -1.30092950
H        2.91638890       1.89774919       1.12668959
H        2.60905902       2.48789914      -0.50520979
H        4.58431844       1.17670960      -1.35078952
H        4.85216807       0.54041981       0.27049989
H        6.41548738       2.32500897      -0.05014998
H        5.22819817       2.88306881       1.12263955
H        4.67172801       5.57340802      -2.10503919
