17
Properties=species:S:1:pos:R:3 atomization_energy=-1633.95 smiles=N.C.C.N.C.C.C.H.H.H.H.H.H.H.H.H.H pbc="F F F"
N        1.62909942      -0.87118969      -0.53408976
C        2.98490895      -0.47701981      -0.11684995
C        3.19155866       1.05647956      -0.24458991
N        2.02949916       1.76499936       0.33921985
C        4.50361836       1.52291944       0.41075983
C        5.69129769       0.97249961      -0.26548989
C        6.66252726       0.52834980      -0.81524968
H        1.55325937      -1.88733927      -0.48736981
H        1.50466945      -0.62711976      -1.51754945
H        3.71634863      -1.01356962      -0.73035970
H        3.12452888      -0.79047971       0.92411964
H        3.21329876       1.31099954      -1.31248942
H        2.00513923       1.57713937       1.34205950
H        1.20187951       1.26275947      -0.00619000
H        4.51977817       1.23909951       1.47031947
H        4.55953800       2.61837888       0.37750986
H        7.52719683       0.14070994      -1.30294954
