19
Properties=species:S:1:pos:R:3 atomization_energy=-1787.53 smiles=N.C.C.N.C.C.C.H.H.H.H.H.H.H.H.H.H.H.H pbc="F F F"
N        1.85917922      -0.13221995      -1.49860947
C        3.10081883       0.06299998      -0.73410972
C        2.99263887       1.25651945       0.25016990
N        1.75694936       1.16993955       1.03923959
C        4.15612845       1.30438946       1.19978958
C        5.30239769       2.25679903       0.95649960
C        4.36252835       2.49777891       2.10295922
H        1.99655921      -0.89142962      -2.16544906
H        1.67941932       0.70390971      -2.05551918
H        3.93823839       0.22420991      -1.42355946
H        3.30827877      -0.86228965      -0.18387992
H        2.94164877       2.18490910      -0.33406987
H        1.81252923       0.34333985       1.63235941
H        1.01837962       0.92911965       0.36918987
H        4.38864817       0.33258988       1.62415940
H        5.25025797       2.94159881       0.11717995
H        6.30600741       1.91785924       1.18874958
H        4.71916831       2.31060918       3.10867869
H        3.65678861       3.31806872       2.03029918
