21
Properties=species:S:1:pos:R:3 atomization_energy=-1982.75 smiles=C.C.C.C.C.O.C.H.H.H.H.H.H.H.H.H.H.H.H.H.H pbc="F F F"
C        2.87029883      -0.80241970      -1.15281950
C        2.44504900      -0.03819999       0.09235997
C        2.96488873       1.41287942       0.13207995
C        2.39771897       2.11935925       1.36883941
C        4.49890835       1.51018945       0.11828995
O        5.04869778       0.77744970       1.21079955
C        6.46787741       0.83997965       1.22526949
H        2.38539916      -1.78390931      -1.17336949
H        3.95125843      -0.96936963      -1.17246955
H        2.58407898      -0.26456989      -2.06192915
H        2.77520880      -0.58775974       0.98115962
H        1.34840941      -0.02304999       0.12493995
H        2.58831890       1.94147921      -0.75402970
H        2.71298897       1.62675930       2.29415920
H        1.30287952       2.12216921       1.34470948
H        2.73122898       3.16137883       1.40755939
H        4.80339799       2.56099900       0.19680993
H        4.89618827       1.11705950      -0.82412966
H        6.82972750       0.26481989       2.08201914
H        6.80519737       1.87567929       1.33223952
H        6.88018719       0.40146985       0.31114986
