13
Properties=species:S:1:pos:R:3 atomization_energy=-1449.2 smiles=C.C.C.C.C.C.C.H.H.H.H.H.H pbc="F F F"
C        2.78923893      -0.71166972       2.76812890
C        3.14888869      -0.40952985       1.66199938
C        3.58749870      -0.04835998       0.30770990
C        4.14939827       1.34149945       0.30788987
C        5.42089800       1.63645942       0.00000000
C        5.89022757       2.96180878       0.00000000
C        6.28750750       4.08370837       0.00000000
H        2.47305903      -0.97652960       3.75101844
H        2.73935884      -0.08814997      -0.38490985
H        4.32643842      -0.77474969      -0.04963998
H        3.45704874       2.14169914       0.56402975
H        6.12453784       0.85076965      -0.25958989
H        6.64160748       5.08817804       0.00175000
