15
Properties=species:S:1:pos:R:3 atomization_energy=-1575.19 smiles=C.C.C.C.O.C.C.H.H.H.H.H.H.H.H pbc="F F F"
C        0.80307968       0.42693982      -0.04068999
C        2.10995915       0.18282992       0.13501995
C        3.26235877       1.15174950       0.00812999
C        3.99585849       1.38544950       1.34349942
O        3.82955856       2.76798885       1.73686934
C        3.23366871       3.35520860       0.64552972
C        2.89334879       2.54563909      -0.34930985
H        0.07195997      -0.36628986       0.07913997
H        0.42340983       1.41113947      -0.29550990
H        2.39787895      -0.83590967       0.39374984
H        3.96266835       0.74575973      -0.73163971
H        5.07123803       1.20064953       1.23131951
H        3.62874855       0.74945973       2.15691926
H        3.09072886       4.42031827       0.72389971
H        2.41751916       2.84846890      -1.26949950
