11
Properties=species:S:1:pos:R:3 atomization_energy=-1273.69 smiles=C.C.C.C.O.C.O.H.H.H.H pbc="F F F"
C        1.04696957       0.01374000      -0.10669996
C        2.37245910      -0.06199998       0.02661999
C        3.17393887      -1.22386955       0.17182994
C        4.41524842      -0.76244968       0.26588990
O        4.57198802       0.62322976       0.20094993
C        3.28826865       1.11390952       0.04766998
O        2.97515887       2.28661904      -0.05065998
H        0.55475979       0.97723960      -0.21032991
H        0.42216984      -0.87243967      -0.11619996
H        2.84734880      -2.24903909       0.19937992
H        5.33635794      -1.30763949       0.38706984
