15
Properties=species:S:1:pos:R:3 atomization_energy=-1549.51 smiles=C.C.C.C.O.C.C.H.H.H.H.H.H.H.H pbc="F F F"
C        0.99999962       0.00000000       0.00000000
C        2.44399905       0.00000000       0.00000000
C        3.63415853       0.00000000       0.00000000
C        5.06204813       0.06224997       0.05501998
O        5.71797768      -0.52961978      -1.07739958
C        5.79208787       0.89669962      -0.96694959
C        7.14770727       1.43278949      -0.68457975
H        0.60597976       1.02086963       0.01162999
H        0.60590973      -0.52051980       0.87824966
H        0.60596979      -0.50030980      -0.88993967
H        5.52096803      -0.08167997       1.02534957
H        5.23525789       1.48834942      -1.67979933
H        7.68784705       0.82741968       0.05130998
H        7.07153704       2.45319905      -0.29266988
H        7.74180708       1.46502947      -1.60273938
