13
Properties=species:S:1:pos:R:3 atomization_energy=-1361.71 smiles=C.C.C.O.C.C.O.H.H.H.H.H.H pbc="F F F"
C        1.03360958       0.21311991       0.69999971
C        2.15330915       0.24552990      -0.03441998
C        3.30285870       1.12877953       0.18493993
O        3.94065850       1.81942923      -0.90377966
C        3.13518887       2.61463907      -0.02300999
C        3.89431837       3.55643849       0.81444966
O        3.44453866       3.95404846       1.88227927
H        0.23289990      -0.48091981       0.46395981
H        0.89195964       0.87691963       1.54765938
H        2.24081915      -0.44543983      -0.87129964
H        3.95218852       0.80238968       0.99183960
H        2.19029915       2.98338890      -0.40134983
H        4.87252818       3.88944838       0.42923982
