15
Properties=species:S:1:pos:R:3 atomization_energy=-1518.24 smiles=N.C.C.N.C.C.C.H.H.H.H.H.H.H.H pbc="F F F"
N        1.61289937       0.49000980      -2.32959912
C        2.58808903       0.93949961      -1.88858932
C        3.82885860       1.53491943      -1.35165944
N        4.97846794       0.62578978      -1.47093945
C        6.21029766       1.20523956      -0.93079960
C        6.58045752       0.93513964       0.49973981
C        7.35237719       0.28294989      -0.61018978
H        3.67124845       1.79277926      -0.29799987
H        4.03790848       2.46607904      -1.89170926
H        5.10082791       0.36755987      -2.45127906
H        6.49046762       2.17504926      -1.33932952
H        5.92987790       0.30509987       1.09574962
H        7.06607710       1.72613934       1.05877956
H        8.35911683       0.63444973      -0.80353968
H        7.21851697      -0.78244971      -0.75927970
