17
Properties=species:S:1:pos:R:3 atomization_energy=-1726.87 smiles=C.C.C.C.C.C.O.H.H.H.H.H.H.H.H.H.H pbc="F F F"
C        0.94771961       0.00047000       0.04017998
C        2.46829906       0.00035000      -0.02025999
C        3.02820874      -1.20822956      -0.72098970
C        4.06733838      -0.88870968      -1.50047937
C        4.36397825       0.57985975      -1.45790944
C        3.08220889       1.15885956      -0.83850970
O        2.21003902       1.60045932      -1.88342927
H        0.57879977       0.93886966       0.46691981
H        0.58899976      -0.81959968       0.67262971
H        0.49284981      -0.12955995      -0.94805963
H        2.87195892       0.01407000       1.00022962
H        2.66852895      -2.21611920      -0.55998980
H        4.65755810      -1.60006934      -2.06266924
H        5.23679812       0.75687971      -0.82106970
H        4.55197816       0.97361959      -2.46124892
H        3.29597863       2.02856919      -0.20912992
H        2.05146914       0.83350969      -2.46322896
