17
Properties=species:S:1:pos:R:3 atomization_energy=-1701.24 smiles=C.C.C.C.C.C.O.H.H.H.H.H.H.H.H.H.H pbc="F F F"
C        0.99999962       0.00000000       0.00000000
C        2.44399905       0.00000000       0.00000000
C        3.63415853       0.00000000       0.00000000
C        5.07815797       0.00000000       0.00000000
C        5.62229771      -0.65836972       1.26635949
C        5.62260757      -0.70341975      -1.24284953
O        5.54765761       1.34829952      -0.01634999
H        0.60598979       1.02086963       0.01166000
H        0.60600979      -0.52054980       0.87826966
H        0.60601976      -0.50033980      -0.88992963
H        5.27815774      -0.12941995       2.16336910
H        6.71752739      -0.62197977       1.28693950
H        5.30821796      -1.70470935       1.34896946
H        5.27623800      -0.20940992      -2.15902925
H        5.31103802      -1.75308932      -1.28647950
H        6.71790741      -0.66483975      -1.26598944
H        5.06060782       1.80649927      -0.72230970
