13
Properties=species:S:1:pos:R:3 atomization_energy=-1442.24 smiles=C.C.C.C.C.C.C.H.H.H.H.H.H pbc="F F F"
C        1.59937934      -0.55638979       1.01776961
C        2.39617900      -0.08358996       0.04968998
C        3.11744872       1.23072956       0.10793995
C        4.56634842       1.00771964       0.04351998
C        5.75284784       0.83274967      -0.00833000
C        7.26674706       0.60939973      -0.07439997
C        8.45339687       0.43338981      -0.12633995
H        1.10458954      -1.51686942       0.90893964
H        1.42751942      -0.00597000       1.93763923
H        2.53282899      -0.67629975      -0.85313968
H        2.86542884       1.77878926       1.02264957
H        2.79525880       1.84972929      -0.73654970
H        9.50467652       0.27715989      -0.17181994
