15
Properties=species:S:1:pos:R:3 atomization_energy=-1569.44 smiles=C.C.C.C.C.C.O.H.H.H.H.H.H.H.H pbc="F F F"
C       -1.08142957      -0.00512000      -1.01942957
C       -0.53261981       1.00672961       0.04372999
C       -1.03307962      -0.04808998       1.08876963
C       -0.56654978      -1.07708960       0.00205000
C        0.92238965      -1.18559948      -0.03436999
C        1.57172939      -0.01283000      -0.02530999
O        0.91452966       1.20749956       0.01462999
H       -2.16870918       0.01711999      -1.16072958
H       -0.60110977       0.01228999      -2.00224915
H       -1.05048959       1.96970927       0.07520997
H       -0.50827981      -0.07029997       2.04840925
H       -2.11285919      -0.03267999       1.28047944
H       -1.07901955      -2.04166922      -0.00593000
H        1.42496949      -2.14356917      -0.06541997
H        2.64555899       0.11083996      -0.04741998
