17
Properties=species:S:1:pos:R:3 atomization_energy=-1667.66 smiles=N.C.N.C.C.C.C.H.H.H.H.H.H.H.H.H.H pbc="F F F"
N        1.68162937      -0.69997971       1.68138939
C        2.10398911      -0.64199973       0.38960984
N        1.77064931      -1.54081944      -0.47282982
C        3.00123882       0.49616980      -0.04595998
C        4.46479821       0.09796996       0.12232995
C        5.38686810       1.21503947      -0.27896990
C        6.25547757       1.80802928       0.54954979
H        1.72927935       0.15690994       2.22243909
H        0.85372969      -1.25028952       1.87140921
H        1.19743950      -2.25628907      -0.02228999
H        2.76902896       1.38512941       0.55244977
H        2.78378883       0.73647968      -1.09370952
H        4.68762791      -0.77925967      -0.49738979
H        4.65107823      -0.20412992       1.16071949
H        5.34103768       1.53870944      -1.31734945
H        6.34638748       1.51218943       1.58998934
H        6.90311703       2.60469899       0.19620991
