19
Properties=species:S:1:pos:R:3 atomization_energy=-1836.81 smiles=C.C.C.C.C.O.C.H.H.H.H.H.H.H.H.H.H.H.H pbc="F F F"
C        3.08688888      -0.90027963       0.56715980
C        2.30907904       0.40077985       0.44397981
C        3.19283874       1.56378941       0.07150997
C        3.37265857       1.90199921      -1.38770950
C        2.58815893       2.82225900      -0.49810982
O        4.39367814       1.71228938       0.86219963
C        4.19143843       2.32797916       2.12796904
H        2.40620916      -1.73296931       0.76807969
H        3.80997841      -0.85191966       1.39005946
H        3.63957861      -1.12036958      -0.35272986
H        1.80491930       0.61350976       1.39171942
H        1.52100941       0.26869989      -0.30562990
H        2.83114888       1.32526950      -2.12740912
H        4.35495842       2.22548902      -1.71368931
H        3.03669868       3.77523846      -0.24651991
H        1.51315939       2.86223887      -0.63076973
H        3.37843872       1.84611932       2.67771886
H        3.98101838       3.39228868       2.00007923
H        5.11210813       2.22252917       2.70890902
