19
Properties=species:S:1:pos:R:3 atomization_energy=-1861.2 smiles=C.C.C.C.C.C.O.H.H.H.H.H.H.H.H.H.H.H.H pbc="F F F"
C        0.92506967      -0.13982995       0.30553988
C        2.40367904      -0.05084998       0.65921976
C        2.99518893       1.36521947       0.49707980
C        2.33187919       2.36277917       1.45242944
C        4.51193823       1.35211944       0.75132969
C        5.31910807       0.72017971      -0.36097986
O        4.86872807       0.37418984      -1.44710941
H        0.59368978      -1.18258955       0.34357985
H        0.73910973       0.23783990      -0.70444970
H        0.30771989       0.42585984       1.00886963
H        2.94485893      -0.75322968       0.01441999
H        2.54529895      -0.40094986       1.68937934
H        2.80790892       1.70818937      -0.52858979
H        2.42536893       2.03668921       2.49399899
H        1.26828944       2.48571900       1.22651953
H        2.79407890       3.35212865       1.36512951
H        4.74351827       0.81685968       1.67918932
H        4.89207830       2.37525897       0.85511966
H        6.39703742       0.61305973      -0.14601994
