13
Properties=species:S:1:pos:R:3 atomization_energy=-1405.24 smiles=C.C.C.C.C.C.O.H.H.H.H.H.H pbc="F F F"
C        0.99999962       0.00000000       0.00000000
C        2.44399905       0.00000000       0.00000000
C        3.63415853       0.00000000       0.00000000
C        5.00215781       0.00000000       0.00000000
C        6.19231754       0.00000000       0.00000000
C        7.63631698       0.00000000       0.00000000
O        8.12912699       1.33327950      -0.01550999
H        0.60591977       1.02084963       0.01166999
H        0.60591977      -0.52053979       0.87824966
H        0.60591977      -0.50030980      -0.88991967
H        8.03609699      -0.52109978      -0.87521967
H        8.03216668      -0.49409980       0.89262964
H        7.70184690       1.78088929      -0.76447968
