17
Properties=species:S:1:pos:R:3 atomization_energy=-1639.34 smiles=N.C.C.C.C.C.N.H.H.H.H.H.H.H.H.H.H pbc="F F F"
N        1.08093954       0.34049987       0.12815995
C        2.47708901      -0.02514999      -0.11534995
C        2.66608891      -0.79191970      -1.40139948
C        1.75009932      -1.08335952      -2.33742896
C        3.27731873       1.25495954      -0.07944997
C        3.76801850       1.82190927       1.23052946
N        4.70089801       1.22220947       0.28252988
H        1.01358962       0.75596968       1.05505956
H        0.53728976      -0.52020981       0.17470994
H        2.79476902      -0.68424976       0.70294971
H        3.68507848      -1.14185950      -1.56287937
H        0.71902971      -0.75499972      -2.25503902
H        2.02543915      -1.64576930      -3.22419872
H        2.99769887       1.94677917      -0.86708968
H        3.60060857       1.25956951       2.14035926
H        3.81163850       2.89813879       1.34587941
H        5.20858799       1.94059920      -0.23766991
