15
Properties=species:S:1:pos:R:3 atomization_energy=-1556.99 smiles=C.C.C.O.C.O.C.H.H.H.H.H.H.H.H pbc="F F F"
C        0.99126959       0.00861000      -0.04507998
C        2.50481896      -0.02076999       0.05901998
C        3.06763878       1.07646962       0.93423964
O        4.33154813       0.58684977       1.38281944
C        4.33119840      -0.77737968       1.31700944
O        5.23822783      -1.48246947       1.72781936
C        3.04985876      -1.26982954       0.71854972
H        0.63062975      -0.81688970      -0.66785971
H        0.65208976       0.94785966      -0.49478980
H        0.51966979      -0.08250997       0.93976960
H        2.93981887       0.06591998      -0.94566961
H        2.44705907       1.29147944       1.81130933
H        3.21644862       2.00478924       0.37380987
H        3.24371881      -2.05559917      -0.01656000
H        2.40408908      -1.64276934       1.51871938
