13
Properties=species:S:1:pos:R:3 atomization_energy=-1408.88 smiles=C.C.C.C.C.O.O.H.H.H.H.H.H pbc="F F F"
C        1.05704957      -0.10269996      -0.00639000
C        2.52005901       0.09049996       0.00076000
C        3.33316873       1.20589953       0.00278000
C        4.66691807       0.72807970       0.01031999
C        4.57072838      -0.63884975       0.01225000
O        5.44093764      -1.62677936       0.01834999
O        3.27962883      -1.04345958       0.00647000
H        0.53379977       0.85847963       0.00221000
H        0.74134973      -0.67055972       0.87421968
H        0.74791968      -0.65132974      -0.90132965
H        3.00440886       2.23571903      -0.00074000
H        5.58205793       1.30121943       0.01386999
H        4.87351833      -2.41705915       0.01697999
