15
Properties=species:S:1:pos:R:3 atomization_energy=-1581.59 smiles=C.O.C.C.C.C.C.H.H.H.H.H.H.H.H pbc="F F F"
C        0.25185990       1.39310951       0.77135969
O        1.20408956       0.46861980       0.15006995
C        0.40364983      -0.31771988      -0.76880969
C       -0.62172977       0.69034974      -1.26621944
C       -1.09589963       0.99926963       0.14674995
C       -1.41488949      -0.40399985       0.61789976
C       -0.47801980      -1.19900950       0.07687997
H        0.55212981       2.41094895       0.50226982
H        0.29081988       1.27183949       1.85858927
H        0.99932962      -0.82246970      -1.53009940
H       -0.16799993       1.56012934      -1.75460937
H       -1.39291951       0.26020989      -1.91637919
H       -1.90938923       1.71763930       0.24295991
H       -2.18137924      -0.68659972       1.32287942
H       -0.33700988      -2.25405922       0.24885990
