17
Properties=species:S:1:pos:R:3 atomization_energy=-1719.92 smiles=C.C.C.C.C.C.O.H.H.H.H.H.H.H.H.H.H pbc="F F F"
C        0.51436979       1.59853933       0.39528985
C        1.96570919       1.39999942       0.68968971
C        2.94748873       1.60367932      -0.20273992
C        4.40542820       1.38766950       0.09487996
C        5.19891815       2.67943900      -0.06542997
C        6.66484719       2.48759912       0.23108990
O        7.18099733       1.42002947       0.54635981
H       -0.02401999       0.65416973       0.52156978
H        0.34351986       1.95590928      -0.62516974
H        0.09069996       2.33169903       1.08852954
H        2.20878923       1.06337956       1.69534937
H        2.69858892       1.92624925      -1.21183953
H        4.79145818       0.62355974      -0.59108976
H        4.54126821       0.99118960       1.10902956
H        4.82366827       3.45157871       0.61532977
H        5.11785775       3.06057881      -1.08981958
H        7.28041736       3.39902870       0.14131995
