15
Properties=species:S:1:pos:R:3 atomization_energy=-1530.42 smiles=C.C.C.C.O.C.O.H.H.H.H.H.H.H.H pbc="F F F"
C        1.07615963       0.06525998       0.00782000
C        2.55824909      -0.03076999      -0.04352998
C        3.30388871      -1.13366958      -0.07745997
C        4.73084821      -0.74636968      -0.07324997
O        5.27250804      -1.01829963       1.21147958
C        4.62441842       0.75638969      -0.34742986
O        3.27510882       1.16369952      -0.01320000
H        0.60743975      -0.92336965      -0.02274999
H        0.70383975       0.64295972      -0.84397967
H        0.75912969       0.56345980       0.92903966
H        2.94315873      -2.14924914      -0.07247997
H        5.33139812      -1.25687953      -0.83017968
H        4.68734832      -0.58705977       1.86031926
H        4.77829809       0.97769959      -1.41047949
H        5.32625813       1.34698941       0.24945990
