19
Properties=species:S:1:pos:R:3 atomization_energy=-1869.34 smiles=C.C.C.C.C.C.O.H.H.H.H.H.H.H.H.H.H.H.H pbc="F F F"
C        0.89805962      -0.03084999       0.03210999
C        2.40598913      -0.15236994      -0.20222992
C        2.66364887      -0.97010960      -1.46969937
C        3.03613876       1.24614952      -0.29261988
C        4.55177831       1.25257955      -0.17603993
C        5.21992776       2.59689893      -0.31397988
O        5.21214788       0.24445991       0.06877997
H        0.69066970       0.51819980       0.95645961
H        0.43732984      -1.02010960       0.12243995
H        0.40886984       0.49735979      -0.79347967
H        2.83652884      -0.69279975       0.64982976
H        2.26332911      -0.46729983      -2.35673912
H        2.18757902      -1.95499925      -1.39839939
H        3.73406859      -1.13478955      -1.63004932
H        2.66044906       1.87247923       0.52576980
H        2.76121880       1.72440935      -1.23950955
H        4.85700829       3.10111885      -1.21399949
H        6.30207761       2.46450904      -0.40389983
H        5.00233797       3.20300869       0.56958981
