13
Properties=species:S:1:pos:R:3 atomization_energy=-1415.1 smiles=C.C.C.O.C.O.C.H.H.H.H.H.H pbc="F F F"
C        0.99902960       0.02183999       0.10212995
C        2.47322910       0.02466999      -0.05009998
C        3.29290877      -1.00203959      -0.22027992
O        4.63374812      -0.70009969      -0.33450987
C        4.66137839       0.67292974      -0.22421992
O        5.69200775       1.33254951      -0.27776991
C        3.28200882       1.26412951      -0.03083999
H        0.59420977      -0.99369960       0.05820998
H        0.53223980       0.60645976      -0.69642973
H        0.71399974       0.45817981       1.06395954
H        3.06223889      -2.05279918      -0.28366988
H        3.03422886       1.92546930      -0.86457968
H        3.22187879       1.77517929       0.93300965
