17
Properties=species:S:1:pos:R:3 atomization_energy=-1723.64 smiles=C.C.C.C.C.C.O.H.H.H.H.H.H.H.H.H.H pbc="F F F"
C        3.18556882      -1.11974960      -0.59217976
C        2.50195904       0.06353998       0.07298997
C        3.31412882       1.35501948      -0.02327999
C        3.51470870       1.86241928      -1.45826939
C        3.29500867       3.31538871      -1.28033952
C        2.79758882       3.51726861      -0.06696998
O        2.63012893       2.39709900       0.71691972
H        2.58727905      -2.02594924      -0.45528984
H        4.17315829      -1.29674951      -0.15507993
H        3.30845868      -0.95899964      -1.66722932
H        2.32335897      -0.16846994       1.13066961
H        1.50757946       0.21381991      -0.36648986
H        4.28966821       1.20974948       0.46064982
H        2.78121883       1.45352948      -2.16143927
H        4.51968833       1.63120941      -1.82346931
H        3.45861874       4.07337843      -2.03029918
H        2.46854911       4.44039828       0.38165986
