15
Properties=species:S:1:pos:R:3 atomization_energy=-1587.54 smiles=C.C.O.C.C.C.C.H.H.H.H.H.H.H.H pbc="F F F"
C        1.00860961       0.05593998       0.11826995
C        2.50238901      -0.04575998      -0.16241994
O        2.72041886      -1.17913955      -1.04914959
C        3.33752876      -0.63150975      -2.15680924
C        3.56160850       0.67903975      -2.12089922
C        3.07399879       1.16350952      -0.86564963
C        3.13883884       2.42729901      -0.43336982
H        0.77918971       0.88716964       0.79193970
H        0.64585977      -0.87142965       0.57423977
H        0.43934982       0.19041992      -0.80908970
H        3.05370883      -0.24558990       0.76440972
H        3.57134849      -1.33259947      -2.93933894
H        4.02953840       1.26836956      -2.89241894
H        2.75242885       2.70713892       0.54076979
H        3.58407860       3.21081886      -1.03774958
