13
Properties=species:S:1:pos:R:3 atomization_energy=-1455.06 smiles=C.C.O.C.C.C.C.H.H.H.H.H.H pbc="F F F"
C        0.91190964       0.01379999      -0.00082000
C        2.24398919      -0.00498000       0.00117000
O        3.03391875       1.13674954       0.00546000
C        4.35855817       0.72107972       0.00822000
C        5.39809785       1.55422933       0.01427999
C        4.37694808      -0.71511971       0.00428000
C        3.11191888      -1.14951952       0.00015000
H        0.37711985       0.95727963       0.00058000
H        0.33042986      -0.90076966      -0.00352000
H        6.41876769       1.18983953       0.01685999
H        5.24048771       2.62723898       0.01718000
H        5.26437793      -1.32655941       0.00494000
H        2.78743880      -2.17728920      -0.00316000
