21
Properties=species:S:1:pos:R:3 atomization_energy=-1990.38 smiles=C.C.C.C.C.C.O.H.H.H.H.H.H.H.H.H.H.H.H.H.H pbc="F F F"
C        1.09666962      -0.23706990       0.19279992
C        2.61034894      -0.15294994       0.06020998
C        3.17168884       1.27432950       0.20927991
C        2.80146892       1.96419924       1.54095935
C        3.28108882       1.24755955       2.79556891
C        4.69014819       1.25204953      -0.03539998
O        5.23965805       2.56146909       0.02113999
H        0.75643971      -1.25203956      -0.03740999
H        0.60192978       0.45091983      -0.49995981
H        0.76783973      -0.00379000       1.20971957
H        2.88448893      -0.53755976      -0.93040963
H        3.07448882      -0.82661966       0.78977968
H        2.72774883       1.89433932      -0.58241978
H        1.71314932       2.08297913       1.59961931
H        3.20647876       2.98369877       1.54714942
H        2.85005884       0.24586991       2.87742896
H        2.97621892       1.81074928       3.68380850
H        4.37093805       1.16096955       2.81814877
H        4.91689811       0.83649969      -1.02348958
H        5.20738791       0.63497975       0.70572971
H        4.78569796       3.09791878      -0.65177978
