11
Properties=species:S:1:pos:R:3 atomization_energy=-1265.0 smiles=C.C.C.C.O.C.C.H.H.H.H pbc="F F F"
C        0.99999962       0.00000000       0.00000000
C        2.44399905       0.00000000       0.00000000
C        3.63415853       0.00000000       0.00000000
C        5.07980821      -0.00584000       0.00000000
O        5.69311800      -1.06446962      -0.00000000
C        5.79531771       1.24978952       0.00000000
C        6.39360724       2.29262906       0.00000000
H        0.60596979       1.02086963       0.01167999
H        0.60592973      -0.52052980       0.87824966
H        0.60592973      -0.50029980      -0.88992963
H        6.93043744       3.21287863       0.00000000
