17
Properties=species:S:1:pos:R:3 atomization_energy=-1651.44 smiles=C.C.O.C.C.O.C.H.H.H.H.H.H.H.H.H.H pbc="F F F"
C        0.94295964      -0.00263000       0.16671993
C        2.44653902       0.00754000      -0.07217997
O        2.67880893       0.05729998      -1.49757945
C        3.20799880       1.06991960       0.75788967
C        4.16337843      -0.02505999       1.26285953
O        5.50354759      -0.01002000       0.73251972
C        3.21517863      -1.09571959       0.69331975
H        0.70173973      -0.03309998       1.23389947
H        0.48098980      -0.87558965      -0.30559987
H        0.47722982       0.89528966      -0.25594989
H        3.60459869      -0.20147991      -1.63540934
H        2.62350902       1.54282938       1.55576943
H        3.68111864       1.86177925       0.16887993
H        4.21897836      -0.06223998       2.35687916
H        5.42974776       0.27550990      -0.19306992
H        3.69773844      -1.84816925       0.06171998
H        2.63460907      -1.61857935       1.46155942
