19
Properties=species:S:1:pos:R:3 atomization_energy=-1848.78 smiles=C.C.C.O.C.C.C.H.H.H.H.H.H.H.H.H.H.H.H pbc="F F F"
C        0.87941966       0.05193998       0.03027999
C        2.38995903      -0.06614997       0.03109999
C        3.16379869       0.91813964       0.91726966
O        4.01296831      -0.14686994       1.41741949
C        3.09373867      -1.15172956       0.89525963
C        2.31106918      -1.78010933       2.04425915
C        3.85553859      -2.19258906       0.08367997
H        0.42841984      -0.80855968      -0.47306982
H        0.56751981       0.95431965      -0.50591979
H        0.46810981       0.10908995       1.04220959
H        2.75797887      -0.04743998      -1.00436962
H        2.60215902       1.38610946       1.73192933
H        3.73680840       1.67843939       0.37953986
H        1.84649933      -1.02027961       2.68104888
H        2.96830883      -2.38122913       2.68170898
H        1.51910936      -2.43393911       1.66483937
H        4.48904825      -1.72368933      -0.67666973
H        3.16176868      -2.86850880      -0.42791984
H        4.50458833      -2.79595902       0.72696969
