17
Properties=species:S:1:pos:R:3 atomization_energy=-1662.36 smiles=C.C.C.C.O.C.O.H.H.H.H.H.H.H.H.H.H pbc="F F F"
C        1.44236937       0.08032997       1.04835960
C        2.65031896       0.64817976       0.30763987
C        2.24767903       1.15559957      -1.08579956
C        3.44130857       1.43995948      -1.99724921
O        4.36844804       2.34248896      -1.41869944
C        3.23936862       1.74510935       1.17368957
O        3.08922875       2.94471889       0.95596964
H        1.72551936      -0.27728988       2.04491925
H        1.00428963      -0.75991968       0.49962980
H        0.66579974       0.84261967       1.18269956
H        3.41121857      -0.13431995       0.20565993
H        1.64899940       2.07074914      -0.98693958
H        1.61285938       0.41238983      -1.58282944
H        3.09656881       1.86335922      -2.94617888
H        3.97720843       0.51247980      -2.22181911
H        3.86584859       3.04271880      -0.95264960
H        3.80406856       1.40060943       2.05739918
