10
Properties=species:S:1:pos:R:3 atomization_energy=-1129.26 smiles=C.C.N.C.N.C.H.H.H.H pbc="F F F"
C       -0.75215974       1.16262951       0.00841000
C        0.62328975       1.18246957       0.02519999
N        1.38289943       0.07208997       0.05373998
C        0.71165975      -1.09057960       0.06512997
N       -0.62294973      -1.23208950       0.05079998
C       -1.32942943      -0.08666997       0.02237999
H       -1.34142943       2.06831919      -0.01451000
H        1.17174952       2.11957928       0.01615000
H        1.30244954      -1.99952927       0.08821997
H       -2.40872895      -0.20703992       0.01093999
