15
Properties=species:S:1:pos:R:3 atomization_energy=-1521.24 smiles=C.C.C.O.C.O.C.H.H.H.H.H.H.H.H pbc="F F F"
C        1.01093963       0.00330000       0.05905997
C        2.50313894       0.02945999      -0.04571998
C        3.19342869       1.17568955      -0.09052997
O        4.55895814       1.25280955      -0.15572994
C        5.19152787      -0.01641999       0.04026998
O        4.54793833      -1.09346955      -0.63207977
C        3.22735866      -1.27912946      -0.12800995
H        0.63421972      -1.02180962       0.12402995
H        0.55454979       0.47054982      -0.81991970
H        0.67717975       0.53389982       0.95687962
H        2.74846901       2.16208927      -0.08661997
H        6.20899765       0.06150997      -0.35460985
H        5.27158804      -0.22862991       1.11457959
H        3.27462863      -1.76069926       0.85489968
H        2.71678882      -1.95966926      -0.81676965
