19
Properties=species:S:1:pos:R:3 atomization_energy=-1846.64 smiles=C.C.C.C.C.C.O.H.H.H.H.H.H.H.H.H.H.H.H pbc="F F F"
C        2.88611874      -1.01993959      -0.35706986
C        2.37227919       0.27825990       0.24754989
C        3.41358872       1.35567945       0.19205992
C        3.48363865       2.28768917      -0.99351963
C        3.06644879       2.82005892       0.35226986
C        1.66391937       3.28945865       0.57012980
O        4.04000838       3.61338864       1.04724960
H        2.11699919      -1.79621929      -0.30320988
H        3.77196850      -1.37804950       0.17680993
H        3.16089865      -0.87990963      -1.40717950
H        2.09588916       0.10439996       1.29423944
H        1.46012945       0.57323978      -0.28324988
H        4.34564840       1.02523962       0.63780977
H        2.72956890       2.19977924      -1.76785928
H        4.46188833       2.55563898      -1.37457944
H        0.94729961       2.79759891      -0.09433996
H        1.59452941       4.36667819       0.38652985
H        1.35872951       3.10045875       1.60419937
H        4.95014830       3.32513879       0.86476969
