15
Properties=species:S:1:pos:R:3 atomization_energy=-1510.24 smiles=C.C.O.C.C.O.C.H.H.H.H.H.H.H.H pbc="F F F"
C        0.93793963       0.14355994       0.18814992
C        2.39826906      -0.13256995      -0.12817995
O        2.54610893      -1.50056945      -0.57185978
C        2.69298894      -1.50304936      -2.00673926
C        3.15231888      -0.14409995      -2.38864918
O        2.15538912       0.88161967      -2.40558894
C        2.94331896       0.72982974      -1.21881952
H        0.79031966       1.18220953       0.49890980
H        0.59133975      -0.51799980       0.98868963
H        0.29590987      -0.05197998      -0.67779973
H        2.99882880      -0.02107999       0.78090966
H        3.41999869      -2.27427903      -2.27531914
H        1.72669926      -1.75003927      -2.45842912
H        4.03578839      -0.06903998      -2.99706879
H        3.66829845       1.47543940      -0.94047966
