15
Properties=species:S:1:pos:R:3 atomization_energy=-1584.73 smiles=C.C.O.C.C.C.C.H.H.H.H.H.H.H.H pbc="F F F"
C        0.91899965      -0.00397000       0.08144997
C        2.44017901      -0.00213000       0.08031997
O        2.92065885      -0.00228000       1.41165939
C        3.03132882       1.16370949      -0.66195977
C        3.80750860       0.72133974      -1.66442933
C        3.80853861      -0.72122973      -1.66443929
C        3.03393893      -1.16571956      -0.66333976
H        0.50380979      -0.00235000      -0.93243963
H        0.52940977       0.87230966       0.61268975
H        0.53170977      -0.88360962       0.60882978
H        3.89118846      -0.00079000       1.35096944
H        2.84768894       2.19848907      -0.41395984
H        4.35838810       1.33069941      -2.36531914
H        4.36022810      -1.32899946      -2.36541906
H        2.85231897      -2.20050923      -0.41599984
