17
Properties=species:S:1:pos:R:3 atomization_energy=-1724.97 smiles=C.C.C.O.C.C.C.H.H.H.H.H.H.H.H.H.H pbc="F F F"
C        0.97112964       0.03906998       0.36558986
C        2.46801897      -0.01169000       0.05362998
C        2.86494891       1.20087953      -0.79657969
O        4.19420827       1.14764949      -1.32193948
C        4.51742846      -0.04882998      -1.89263923
C        3.92039857      -1.21518948      -1.62978942
C        2.82670886      -1.34280942      -0.62441975
H        0.70541972       0.97022964       0.87592966
H        0.67456977      -0.79903966       1.00391959
H        0.37927984      -0.01579999      -0.55611980
H        3.02512879       0.04403998       0.99841959
H        2.80534902       2.10707916      -0.18161993
H        2.17282925       1.34288941      -1.63576942
H        5.35526765       0.05450998      -2.56974909
H        4.25189825      -2.11497915      -2.13782914
H        1.95394929      -1.78540930      -1.11317953
H        3.14370883      -2.05627920       0.14965994
