15
Properties=species:S:1:pos:R:3 atomization_energy=-1545.22 smiles=C.C.C.C.C.C.O.H.H.H.H.H.H.H.H pbc="F F F"
C        0.99999962       0.00000000       0.00000000
C        2.44399905       0.00000000       0.00000000
C        3.63415853       0.00000000       0.00000000
C        5.07815797       0.00000000       0.00000000
C        5.45552794       1.44227941       0.08695997
C        5.66096797       2.13008912       1.41288938
O        6.76774737       1.67549935       0.62035974
H        0.60607974       1.02090962       0.01191000
H        0.60593976      -0.52066981       0.87816968
H        0.60590973      -0.50007980      -0.89002962
H        5.47740809      -0.43516982      -0.92149962
H        5.47485803      -0.57446977       0.84382966
H        5.16122794       2.02781914      -0.77556970
H        5.43865808       1.58845932       2.32295903
H        5.48950788       3.19703879       1.46666938
