15
Properties=species:S:1:pos:R:3 atomization_energy=-1400.29 smiles=C.C.C.C.O.H.H.H.H.H.H.H.H.H.H pbc="F F F"
C        1.05219958      -0.09471996       0.02403999
C        2.57145888      -0.04555998       0.05571998
C        3.08700874       1.38733946      -0.04029998
C        4.60880820       1.43942946      -0.00826000
O        5.04709801       2.78911882      -0.08970997
H        0.70496975      -1.13036959       0.09311996
H        0.66518973       0.33192988      -0.90681962
H        0.62409973       0.46379983       0.86252968
H        2.96772873      -0.64027977      -0.77556970
H        2.92680892      -0.50815979       0.98389963
H        2.68637887       1.99213925       0.78277969
H        2.72520887       1.85911929      -0.96229963
H        5.04505816       0.88197962      -0.84348964
H        4.99360782       1.01610958       0.92489966
H        4.72179810       3.15201886      -0.93123960
