15
Properties=species:S:1:pos:R:3 atomization_energy=-1603.11 smiles=C.C.C.C.C.C.C.H.H.H.H.H.H.H.H pbc="F F F"
C        0.96751960       0.43787983      -1.05740959
C        2.13739916       0.28142988      -0.84313966
C        3.52183857       0.09060996      -0.58983977
C        4.35347824       1.12636951      -0.40448984
C        5.78948785       1.02471957      -0.12819994
C        6.71236722       0.53704980      -1.21420955
C        6.72684750       1.98354927      -0.81469966
H       -0.07134997       0.57773979      -1.24774955
H        3.89711849      -0.92737963      -0.55087976
H        3.94439855       2.13535907      -0.44191981
H        6.03239757       0.74876973       0.89399968
H        6.29878771       0.28559990      -2.18458914
H        7.55495680      -0.07941997      -0.92211966
H        7.57984726       2.34652904      -0.25242990
H        6.32464763       2.70445891      -1.51770943
