16
Properties=species:S:1:pos:R:3 atomization_energy=-1613.79 smiles=N.C.C.C.C.C.C.H.H.H.H.H.H.H.H.H pbc="F F F"
N        1.17945951       0.31622989       0.03922998
C        2.58433888      -0.03935998      -0.03248999
C        2.87034879      -0.75813973      -1.27753953
C        3.09935884      -1.35514943      -2.29511907
C        3.38201855       1.22591949      -0.12606995
C        3.75784854       1.98569925       1.12638957
C        4.82061809       1.27702944       0.33510988
H        1.00982963       0.79721966       0.91909963
H        0.62941976      -0.53952977       0.06307998
H        2.86978887      -0.63948973       0.83885968
H        3.29848883      -1.87721927      -3.20201880
H        3.11500868       1.82303933      -0.99481964
H        3.48450869       1.57238936       2.09035919
H        3.72887864       3.06847879       1.08427952
H        5.51194770       1.87830922      -0.24434991
H        5.26200803       0.38248984       0.75952970
