17
Properties=species:S:1:pos:R:3 atomization_energy=-1724.44 smiles=C.C.O.C.C.C.C.H.H.H.H.H.H.H.H.H.H pbc="F F F"
C        0.96436963       0.01824000      -0.08851997
C        2.47621898      -0.01604000       0.06821997
O        2.84460899      -1.20905947       0.78901972
C        3.37762874      -0.82761965       2.07039916
C        3.50890862       0.65093977       2.02382915
C        4.12206827       1.41919943       3.13449874
C        2.99663882       1.11282954       0.88361965
H        0.62361973      -0.85338967      -0.65764976
H        0.63520975       0.92444962      -0.60620976
H        0.46224983      -0.03068999       0.88481967
H        2.96320871      -0.04738998      -0.91195967
H        4.34097825      -1.32650945       2.20733908
H        2.68120885      -1.15083959       2.84989886
H        4.14462846       2.49185897       2.91600889
H        5.15129820       1.08858959       3.30556874
H        3.55270853       1.27468945       4.05798850
H        2.95181873       2.14915906       0.58320977
