13
Properties=species:S:1:pos:R:3 atomization_energy=-1392.3 smiles=C.C.C.C.C.O.O.H.H.H.H.H.H pbc="F F F"
C        0.99999962       0.00000000       0.00000000
C        2.44399905       0.00000000       0.00000000
C        3.63415853       0.00000000       0.00000000
C        5.07815797       0.00000000       0.00000000
C        5.71405797       1.33473949      -0.33162985
O        5.02099787       2.11973925      -1.18936956
O        6.82174727       1.66136931       0.07500997
H        0.60610977       1.02092962       0.01067999
H        0.60587977      -0.51967979       0.87871963
H        0.60596979      -0.50105979      -0.88950963
H        5.46065783      -0.72884969      -0.72269974
H        5.43844764      -0.29419989       0.99250961
H        4.15937848       1.74828935      -1.46073947
