14
Properties=species:S:1:pos:R:3 atomization_energy=-1459.37 smiles=N.C.C.C.C.C.C.H.H.H.H.H.H.H pbc="F F F"
N        1.00539958       0.02373999       0.09651996
C        2.46999901       0.00000000       0.00000000
C        2.90773873      -0.76488972      -1.26633955
C        4.35396827      -1.06197962      -1.27063953
C        5.53021799      -1.30544951      -1.27977947
C        2.95201883       1.36116943       0.00000000
C        3.34929875       2.48306901       0.00000000
H        0.74476971       0.54330976       0.93392964
H        0.66398977      -0.92552966       0.23292990
H        2.85386879      -0.52092980       0.88631966
H        2.64672905      -0.19966993      -2.17047903
H        2.36776902      -1.71936929      -1.32372952
H        6.57468721      -1.51701943      -1.29124944
H        3.70209847       3.48831864      -0.00620000
