15
Properties=species:S:1:pos:R:3 atomization_energy=-1531.76 smiles=C.O.C.C.C.C.O.H.H.H.H.H.H.H.H pbc="F F F"
C       -1.22247946      -0.73948968      -0.49597980
O       -1.15794952       0.70199975      -0.51927981
C       -0.00431000       1.01516958       0.28042989
C       -0.01510000      -0.04098998       1.36401950
C       -0.00269000      -1.14005949       0.32611989
C        1.23563955      -0.73728972      -0.46918982
O        1.16804959       0.70431975      -0.49325979
H       -1.20787957      -1.12434960      -1.52054942
H       -2.16127904      -1.03144962      -0.01280999
H       -0.00880000       2.05673921       0.60920979
H       -0.92319964      -0.03524999       1.97479917
H        0.87912967      -0.03331999       1.99499917
H       -0.00523000      -2.17106924       0.67927972
H        2.16338903      -1.02684962       0.03551998
H        1.24404949      -1.12174958      -1.49255945
