17
Properties=species:S:1:pos:R:3 atomization_energy=-1755.39 smiles=C.C.C.C.C.C.C.H.H.H.H.H.H.H.H.H.H pbc="F F F"
C        2.34227902      -1.08130958       1.95979921
C        2.91478887      -0.51295979       0.88786967
C        3.56199861       0.85352965       0.77524969
C        3.52920866       1.65786935       2.05444917
C        2.89136874       2.82795891       2.20288922
C        4.99164821       0.70330973       0.30780988
C        5.48184761       1.22197947      -0.82728966
H        1.90815924      -2.07416924       1.89038919
H        2.28280909      -0.58350979       2.92163891
H        2.91314897      -1.08646963      -0.03961998
H        2.99352884       1.39597940       0.00675000
H        4.07451847       1.25198947       2.90469890
H        2.33769896       3.28261870       1.38759948
H        2.91509873       3.35644856       3.15074887
H        5.65893772       0.13136995       0.95065965
H        4.86266808       1.80427926      -1.50232946
H        6.52261765       1.07609957      -1.09938962
