18
Properties=species:S:1:pos:R:3 atomization_energy=-1749.36 smiles=C.C.C.C.C.C.H.H.H.H.H.H.H.H.H.H.H.H pbc="F F F"
C        1.13229955      -0.22622991      -0.51317980
C        2.59570893       0.05653998      -0.80928967
C        3.38798870       0.31431987       0.47111981
C        4.82754811       0.60799973       0.16885994
C        5.89240772       0.28371988       1.18402947
C        5.79922784      -0.51432980      -0.08729997
H        0.58588977      -0.41467983      -1.44336948
H        0.66169974       0.62502976      -0.00957000
H        1.02405959      -1.10753954       0.12809995
H        2.66975907       0.92333962      -1.47628938
H        3.02556885      -0.79526971      -1.34906951
H        3.30294878      -0.55256981       1.13787960
H        2.96133894       1.17124953       1.00571959
H        4.94727829       1.52228937      -0.40338984
H        5.60219801      -0.20197993       2.10870923
H        6.72075723       0.97548961       1.28935948
H        6.56240726      -0.36026986      -0.84164965
H        5.44339787      -1.53601934      -0.02012999
