15
Properties=species:S:1:pos:R:3 atomization_energy=-1508.99 smiles=C.C.C.C.O.C.O.H.H.H.H.H.H.H.H pbc="F F F"
C        1.82284933       0.06253997      -0.71161969
C        1.85645922      -0.08788997       0.78507969
C        0.54150981       0.02437999       0.06919997
C       -0.34842985       1.20412955       0.21498992
O       -1.67090932       0.70715974      -0.02430999
C       -1.60166937      -0.71475970       0.13793994
O       -0.25622990      -1.15606953      -0.01831999
H        2.14721914       1.00570963      -1.13310953
H        2.07208914      -0.80339970      -1.31533951
H        2.12761906      -1.05538961       1.19151955
H        2.19933917       0.75439968       1.37316941
H       -0.31396988       1.61881932       1.22772947
H       -0.13689994       1.99609921      -0.50799982
H       -2.24048910      -1.19451952      -0.60784979
H       -1.95083918      -0.97699962       1.14125958
