11
Properties=species:S:1:pos:R:3 atomization_energy=-1025.03 smiles=C.C.C.N.H.H.H.H.H.H.H pbc="F F F"
C        1.00155960      -0.01355000      -0.05594998
C        2.49004900      -0.04835998       0.00063000
C        3.27464882      -0.74681971      -1.07859954
N        3.25825864       0.71112973      -0.97890958
H        0.61676976       0.74762970       0.62850972
H        0.59282977      -0.98144962       0.24796990
H        0.62955973       0.21345991      -1.05993953
H        2.87065891      -0.07688997       1.01478958
H        2.74157886      -1.16942959      -1.92120919
H        4.19906842      -1.24219953      -0.81105966
H        4.12798847       1.05929961      -0.57133979
