17
Properties=species:S:1:pos:R:3 atomization_energy=-1639.58 smiles=C.C.C.N.C.C.H.H.H.H.H.H.H.H.H.H.H pbc="F F F"
C        0.73579971       1.27404954      -0.20098992
C       -0.72922970       1.23852949       0.22343991
C       -1.40932949      -0.04679998      -0.24528991
N       -0.70067974      -1.24035952       0.22328992
C        0.68618975      -1.24502955      -0.24802991
C        1.44941938      -0.00675000       0.22042992
H        0.79703969       1.38336940      -1.29094955
H        1.23457950       2.14477909       0.23826991
H       -1.25459946       2.10803916      -0.18717993
H       -0.79390971       1.31183955       1.31641948
H       -2.43678894      -0.07398997       0.13449994
H       -1.47985936      -0.06282997      -1.33964948
H       -0.70195969      -1.24449952       1.24349954
H        1.18445957      -2.14443920       0.12976995
H        0.70567975      -1.31269949      -1.34243951
H        1.54867943      -0.02714999       1.31294943
H        2.46494911      -0.01844999      -0.19297992
