17
Properties=species:S:1:pos:R:3 atomization_energy=-1664.61 smiles=C.C.C.C.O.C.O.H.H.H.H.H.H.H.H.H.H pbc="F F F"
C        1.03883958       0.23969990      -0.08430997
C        2.56745893       0.13761996      -0.01520999
C        2.98361878      -0.70916974       1.19300956
C        3.10264873      -0.45083982      -1.33032950
O        4.51004827      -0.66179972      -1.28302950
C        3.12404870       1.53860940       0.18900993
O        4.09325835       1.98468917      -0.42103984
H        0.72340974       0.88048967      -0.91570962
H        0.62501973       0.67372976       0.83310968
H        0.58195978      -0.74575973      -0.22428990
H        2.56963907      -0.30245989       2.12294916
H        4.07195831      -0.73163971       1.31320945
H        2.63081906      -1.74267927       1.09162955
H        2.88667891       0.20397992      -2.18274915
H        2.63767894      -1.42140948      -1.53400940
H        4.91484817       0.22594991      -1.18653954
H        2.63917905       2.13910921       0.97830961
