11
Properties=species:S:1:pos:R:3 atomization_energy=-1234.05 smiles=C.C.C.C.C.C.O.H.H.H.H pbc="F F F"
C        0.86720967       0.03763998      -0.05177998
C        2.06591914       0.00713000      -0.03293999
C        3.59766866      -0.03273999      -0.00693000
C        4.79712806      -0.06656997       0.01650999
C        6.22528765      -0.11074996       0.05342998
C        6.97725700      -0.79835969      -1.05397958
O        6.84330746       0.62716978      -1.01038961
H       -0.19735992       0.06608997      -0.06894997
H        6.69614737      -0.05841998       1.02799962
H        6.42319762      -1.32988943      -1.81766934
H        7.95039672      -1.21582952      -0.82944968
