17
Properties=species:S:1:pos:R:3 atomization_energy=-1712.83 smiles=C.C.O.C.C.C.C.H.H.H.H.H.H.H.H.H.H pbc="F F F"
C        0.95272965       0.16952994       0.20191992
C        2.40120897      -0.15587994      -0.12194996
O        2.49335908      -1.51128936      -0.60204976
C        2.69956898      -1.49524942      -2.02439917
C        3.22896879      -0.14624993      -2.36370901
C        2.32658907       1.04875961      -2.49102906
C        2.99762871       0.72019971      -1.17989957
H        0.83816968       1.21401955       0.50579980
H        0.59403976      -0.47481980       1.01164963
H        0.29608988      -0.01905999      -0.65365977
H        2.99862870      -0.09616996       0.79463970
H        3.40526860      -2.29067905      -2.28027921
H        1.74496930      -1.69488937      -2.51952912
H        4.20217840      -0.14919994      -2.83069897
H        2.69625890       1.90455924      -3.04544877
H        1.26178951       0.88490963      -2.60141893
H        3.80407840       1.34642949      -0.82444967
