17
Properties=species:S:1:pos:R:3 atomization_energy=-1725.26 smiles=C.C.C.C.C.C.O.H.H.H.H.H.H.H.H.H.H pbc="F F F"
C        0.97208964      -0.11999995      -0.14472994
C        2.47481904      -0.01085000      -0.03098999
C        3.14489883      -1.36525946      -0.01199000
C        3.13198880       1.17172959       0.04214999
C        2.49490890       2.53331902       0.11800995
C        4.62935806       1.22513954       0.04173998
O        5.25632806       2.27183898       0.16539994
H        0.48164981       0.81709971      -0.41540982
H        0.54755977      -0.47126982       0.80124971
H        0.70768970      -0.83888965      -0.92862962
H        2.48272912      -2.11682912       0.43345984
H        4.05506852      -1.37833943       0.59377980
H        3.38261859      -1.68462933      -1.03145959
H        1.42616945       2.50135899       0.34069987
H        2.63055890       3.06760875      -0.82811964
H        2.94887882       3.12767873       0.91911963
H        5.15912804       0.27264988      -0.10080995
