13
Properties=species:S:1:pos:R:3 atomization_energy=-1348.1 smiles=C.C.C.C.N.C.H.H.H.H.H.H.H pbc="F F F"
C        0.99311962      -0.96497964      -0.03221999
C       -0.44407983      -1.40564949      -0.18431993
C       -1.25725954      -0.34328986      -0.04729998
C       -0.54939977       0.91544966       0.22018991
N        0.36806986       1.45300942      -0.77037969
C        0.92011962       0.52984978       0.21642991
H        1.45467948      -1.47276948       0.82019966
H        1.56824936      -1.18357957      -0.93687965
H       -0.75679973      -2.42003893      -0.38044984
H       -2.33677896      -0.38939983      -0.11701995
H       -0.91210962       1.56901935       1.00302961
H        0.22881991       0.99172959      -1.67081936
H        1.58114942       0.92162963       0.97445960
