16
Properties=species:S:1:pos:R:3 atomization_energy=-1602.28 smiles=C.C.C.C.C.C.H.H.H.H.H.H.H.H.H.H pbc="F F F"
C        0.94942960       0.00584000       0.02272999
C        2.47030913       0.00982000       0.02270999
C        3.02738892       1.43281939       0.00000000
C        4.47138809       1.43281939       0.00000000
C        5.66154783       1.43281939       0.00000000
C        7.10554726       1.43281939       0.00000000
H        0.57282980      -1.02227959       0.03910999
H        0.55538980       0.49723981      -0.87275963
H        0.55533978       0.52553980       0.90207964
H        2.83081883      -0.54977978      -0.84890966
H        2.83076887      -0.52166980       0.91175963
H        2.65571885       1.98575918       0.87082967
H        2.65571885       1.95768922      -0.88802965
H        7.49963721       2.45364896      -0.01167999
H        7.49956706       0.91223963      -0.87823963
H        7.49956706       0.93246966       0.88991967
