17
Properties=species:S:1:pos:R:3 atomization_energy=-1752.4 smiles=C.C.C.C.C.C.C.H.H.H.H.H.H.H.H.H.H pbc="F F F"
C        0.81831967      -0.18364992      -0.10197996
C        2.33968910      -0.07628997      -0.00363000
C        3.00744869      -0.83816968      -1.14793954
C        2.76265886       1.37134947      -0.02422999
C        3.42069866       1.96960922       0.97907959
C        3.79490844       3.33801879       0.90605966
C        4.11271839       4.49328843       0.84834967
H        0.33356987       0.34275987       0.72780970
H        0.50117981      -1.23136947      -0.06243998
H        0.44332984       0.24578990      -1.03799957
H        2.65138885      -0.54195978       0.94011965
H        2.71766896      -0.43421983      -2.12467915
H        2.72488891      -1.89622928      -1.12489956
H        4.09911849      -0.78305971      -1.07136963
H        2.50839904       1.94424917      -0.91519967
H        3.68606863       1.42128949       1.87795923
H        4.39434834       5.51937784       0.79575967
