12
Properties=species:S:1:pos:R:3 atomization_energy=-1242.67 smiles=C.C.C.N.C.N.H.H.H.H.H.H pbc="F F F"
C        1.41739943      -0.20513992       0.06087997
C        0.41406985      -1.32652952      -0.00113000
C       -0.89643965      -1.06735958      -0.03663998
N       -1.32384950       0.22546992      -0.01832999
C       -0.42823983       1.25403954       0.03056999
N        0.85403968       1.16291957       0.06909997
H        2.02430921      -0.32794986       0.96478963
H        2.09105916      -0.28993987      -0.79903966
H        0.78257972      -2.34558910      -0.01557999
H       -1.66054936      -1.83514934      -0.08071997
H       -2.31858915       0.40776984      -0.04731998
H       -0.91311964       2.24415901       0.03445999
