17
Properties=species:S:1:pos:R:3 atomization_energy=-1700.9 smiles=C.C.C.C.O.C.C.H.H.H.H.H.H.H.H.H.H pbc="F F F"
C        0.95377960       0.23981990      -0.79681972
C        2.43706903       0.19826992      -0.63540972
C        3.18470862       1.23937947      -0.23620991
C        4.64149822       1.22609953      -0.06601997
O        5.52892808       0.60959976      -1.01825957
C        5.47844769       2.03869916      -1.02651957
C        6.73339751       2.70164895      -0.58358977
H        0.68472976       0.00690000      -1.83214925
H        0.53683980       1.22092951      -0.54844981
H        0.48664982      -0.50463980      -0.14434994
H        2.92638879      -0.74521968      -0.86788963
H        2.69186884       2.18176909      -0.00608000
H        4.95535793       1.18854949       0.97285963
H        5.01454778       2.52166888      -1.87591926
H        7.21062708       2.16784924       0.24425991
H        6.52122730       3.72267861      -0.25351990
H        7.44567718       2.75163880      -1.41233943
