15
Properties=species:S:1:pos:R:3 atomization_energy=-1576.85 smiles=C.C.C.C.C.C.O.H.H.H.H.H.H.H.H pbc="F F F"
C        1.45822940      -0.66692974       0.88090968
C        2.22124909      -0.15949994      -0.09626996
C        3.15600872       1.00703960       0.06857998
C        4.59606799       0.58129974       0.03621999
C        5.36683804       0.45064981       1.12832949
C        5.21769816       0.32407989      -1.28862949
O        4.61327800       0.46486981      -2.34536907
H        0.80089966      -1.50903945       0.68784971
H        1.47460948      -0.26288990       1.88777920
H        2.16935919      -0.59875974      -1.09215957
H        2.94238886       1.52798940       1.01126962
H        2.95742881       1.74263928      -0.72053973
H        4.96003817       0.63531977       2.11874911
H        6.40899742       0.15137994       1.07812958
H        6.27138756      -0.00157000      -1.27084947
