17
Properties=species:S:1:pos:R:3 atomization_energy=-1648.0 smiles=C.C.C.O.C.C.O.H.H.H.H.H.H.H.H.H.H pbc="F F F"
C        1.01922959      -0.13571995       0.23649990
C        2.49673906       0.04925998      -0.08600996
C        2.79372891       0.07285997      -1.58726933
O        2.20958912       1.22549949      -2.19340913
C        3.20939873       1.13529952       0.74127971
C        4.03430847      -0.01579000       1.30593953
O        3.27364883      -0.99659958       0.56392976
H        0.85786969      -0.25165990       1.31436955
H        0.61797975      -1.02918962      -0.25552990
H        0.43159984       0.72714973      -0.09459997
H        2.40921897      -0.82225969      -2.08926912
H        3.87275843       0.11710996      -1.77149928
H        1.26238956       1.04011960      -2.31490916
H        2.59032898       1.65146935       1.48041941
H        3.78590853       1.87084929       0.17398993
H        5.08823810      -0.02427999       1.01317958
H        3.94517851      -0.16937993       2.38496918
