17
Properties=species:S:1:pos:R:3 atomization_energy=-1649.87 smiles=C.C.C.O.C.C.O.H.H.H.H.H.H.H.H.H.H pbc="F F F"
C        0.95233961      -0.04810998       0.01633999
C        2.46788902       0.00905000       0.03092999
C        3.15600872       1.05067959       0.95397964
O        2.39884917       1.56264937       2.06878916
C        4.21312832      -0.02627999       1.28206950
C        3.19178879      -1.09770960       0.84306964
O        3.70569849      -2.21292923       0.09460996
H        0.60732973      -0.89474967      -0.58573977
H        0.53795977       0.86575964      -0.42081984
H        0.53739978      -0.16176993       1.02264957
H        2.84108897       0.08100997      -1.00159959
H        3.57268862       1.89706929       0.39621984
H        2.10359914       0.78985967       2.57979894
H        5.11095800       0.02973999       0.65620976
H        4.51924827      -0.08187997       2.33053906
H        2.59742907      -1.46587945       1.68934931
H        4.22595835      -1.83152927      -0.63311975
