15
Properties=species:S:1:pos:R:3 atomization_energy=-1576.48 smiles=C.C.O.C.C.C.C.H.H.H.H.H.H.H.H pbc="F F F"
C        1.09264960       0.09147996       0.17577993
C        2.34022908      -0.11701995      -0.25077991
O        2.69007905      -1.36548946      -0.76236969
C        4.06921850      -1.26476955      -1.18801959
C        4.56098840       0.11670996      -0.89149964
C        3.99216839       1.33304950      -1.57393943
C        3.42674855       0.85804966      -0.26608990
H        0.78497971       1.05442955       0.56583978
H        0.35567986      -0.70296971       0.13461994
H        4.64745828      -2.01563924      -0.64011974
H        4.12101832      -1.48731941      -2.25855904
H        5.54153757       0.16071993      -0.44283981
H        4.58148829       2.24256907      -1.56662939
H        3.40158860       1.19799955      -2.47332903
H        3.61825864       1.41828940       0.63967974
