17
Properties=species:S:1:pos:R:3 atomization_energy=-1652.52 smiles=C.C.C.C.O.C.O.H.H.H.H.H.H.H.H.H.H pbc="F F F"
C        1.99311918      -0.90305963       1.28259953
C        3.41997876      -0.67634971       0.85021964
C        4.36818814      -1.58310940       1.14677958
C        3.65310861       0.59850974       0.06497997
O        3.30837869       1.71439937       0.90156961
C        5.07639820       0.86029964      -0.46267983
O        5.11586786       2.11198915      -1.15401959
H        1.66458930      -0.10820995       1.95996929
H        1.86718923      -1.85577931       1.80877934
H        1.32943952      -0.91629964       0.41167984
H        4.13041842      -2.48492895       1.70481936
H        5.40495773      -1.47312943       0.84543966
H        2.96288876       0.62913973      -0.78723971
H        3.70252845       1.53952940       1.77511936
H        5.40149776       0.07792997      -1.15420960
H        5.79414791       0.93238961       0.36114987
H        4.54005803       2.71191883      -0.63879973
