13
Properties=species:S:1:pos:R:3 atomization_energy=-1317.17 smiles=C.C.N.C.C.C.H.H.H.H.H.H.H pbc="F F F"
C        1.04433958      -0.01857999      -0.06231998
C        2.52990901       0.05855998       0.00496000
N        3.33996880      -0.63081975      -0.99098963
C        3.31352878       0.83318967      -1.02875958
C        4.48780830       1.53982941      -0.61688974
C        5.47385778       2.13627907      -0.27651989
H        0.60032975       0.74182974       0.58778977
H        0.69969975      -0.99979959       0.27917990
H        0.66518973       0.14211995      -1.07715962
H        2.90108879       0.01371999       1.02250959
H        2.76856896      -1.01253960      -1.74442931
H        2.77030878       1.26579957      -1.86304923
H        6.35238741       2.65624900       0.02451999
