19
Properties=species:S:1:pos:R:3 atomization_energy=-1850.65 smiles=C.C.C.C.C.C.O.H.H.H.H.H.H.H.H.H.H.H.H pbc="F F F"
C        2.13478905      -0.37112985       1.34496950
C        2.56883893       0.18365992      -0.00549000
C        2.92402873       1.65804939       0.03970999
C        1.78139925       2.58377896       0.36391986
C        4.18290837       2.05759915      -0.23734991
C        4.73800837       3.44506856      -0.26853988
O        5.79647793       3.51635870       0.67518975
H        1.97055925      -1.45105941       1.27178953
H        1.19732947       0.08237996       1.68205934
H        2.89744892      -0.19480992       2.11092911
H        1.76747927       0.02961999      -0.73872972
H        3.42241854      -0.40822983      -0.36017984
H        0.93000962       2.37381917      -0.29187989
H        2.02656922       3.63951856       0.23599990
H        1.46128942       2.44608911       1.40170947
H        4.92502822       1.29827952      -0.48132982
H        4.01387847       4.22437825      -0.02628999
H        5.14779786       3.66038862      -1.25995948
H        5.42942780       3.21482865       1.52360943
