17
Properties=species:S:1:pos:R:3 atomization_energy=-1774.23 smiles=C.C.C.C.C.C.C.H.H.H.H.H.H.H.H.H.H pbc="F F F"
C        0.74457970       2.09777912      -0.56998975
C        2.08010925       1.45084947      -0.39182985
C        3.19906880       2.12322925      -0.08351997
C        4.48015812       1.47562941       0.08313996
C        5.60179781       2.14603924       0.38656985
C        6.88093711       1.49581944       0.55192977
C        8.00333682       2.15978927       0.85094969
H        0.02949999       1.67738931       0.14355994
H        0.37237984       1.91005930      -1.58162935
H        0.78416972       3.18061884      -0.41603984
H        2.10815915       0.37272985      -0.52816979
H        3.16108865       3.20283862       0.05048998
H        4.51067809       0.39633986      -0.04913998
H        5.57306788       3.22584871       0.51861981
H        6.92360734       0.41599984       0.42513984
H        8.01986704       3.23621877       0.98822963
H        8.94292658       1.62856940       0.96560965
