21
Properties=species:S:1:pos:R:3 atomization_energy=-1991.71 smiles=C.C.C.C.C.C.O.H.H.H.H.H.H.H.H.H.H.H.H.H.H pbc="F F F"
C        2.83913895      -0.86026967      -1.12142950
C        2.44085904       0.05875998       0.02713999
C        3.02411871       1.49703946      -0.02903999
C        2.53215905       2.23904904      -1.28548947
C        2.50785904       2.26008918       1.20964955
C        4.56963832       1.49749946      -0.03202999
O        5.10841803       0.76293971       1.05896956
H        2.37604902      -1.84342921      -0.98546963
H        3.92132841      -1.01091957      -1.16272956
H        2.50229893      -0.47077982      -2.08601922
H        2.73813882      -0.42301982       0.96752964
H        1.34458950       0.11506995       0.05073998
H        2.92847885       1.79095932      -2.20244915
H        2.85185897       3.28744883      -1.27296956
H        1.43851942       2.22633912      -1.35012943
H        2.77832888       1.75121929       2.14101911
H        1.41549950       2.34812907       1.19045951
H        2.92099874       3.27421859       1.25042956
H        4.96490816       2.51897903       0.01652999
H        4.96025820       1.05099961      -0.95236964
H        4.92524825       1.26293952       1.87177926
