13
Properties=species:S:1:pos:R:3 atomization_energy=-1359.16 smiles=C.C.O.C.C.O.C.H.H.H.H.H.H pbc="F F F"
C       -1.29575949       0.64978976       0.06654997
C       -1.01914961      -0.78880972      -0.15203994
O       -0.30382989      -1.46313938       0.88766963
C        0.45105982      -1.09717958      -0.27537989
C        1.14599950       0.26883990      -0.26910990
O        0.99314958       1.08726952       0.89950964
C        0.03101999       1.27530955      -0.14242994
H       -2.01441922       1.01891961      -0.67222971
H       -1.68977928       0.84593965       1.06858956
H       -1.75745932      -1.33675953      -0.71402971
H        0.77573971      -1.87053930      -0.95501962
H        1.96553924       0.46796983      -0.94457960
H        0.04088998       2.19901921      -0.69815971
