11
Properties=species:S:1:pos:R:3 atomization_energy=-1237.38 smiles=C.C.C.O.C.C.C.H.H.H.H pbc="F F F"
C        1.00420958      -0.12686995      -0.13309994
C        2.19062920       0.02222999      -0.02458999
C        3.60300849       0.20673992       0.11009996
O        4.36471809      -0.47442982      -0.89595966
C        4.35656829       0.95844962      -0.95852961
C        5.62115767       1.54799940      -0.64272973
C        6.67910744       2.04990923      -0.37683986
H       -0.04807998      -0.26202989      -0.23099992
H        4.00287834       0.20302992       1.11786961
H        3.79253854       1.41315951      -1.76455929
H        7.61950717       2.49265912      -0.14183994
