19
Properties=species:S:1:pos:R:3 atomization_energy=-1869.61 smiles=C.C.O.C.C.C.C.H.H.H.H.H.H.H.H.H.H.H.H pbc="F F F"
C        0.98139959       0.01562999      -0.00552000
C        2.50247909       0.00841999       0.02817999
O        2.95811894       0.13960995      -1.31928950
C        3.07987886       1.13783961       0.88080963
C        4.49274844       0.66134975       1.18926951
C        4.35161805      -0.84202965       1.39270944
C        3.08125886      -1.26924956       0.64783975
H        0.55211978      -0.07747997       0.99703958
H        0.60378978      -0.80809968      -0.62124978
H        0.60819977       0.94183960      -0.45621983
H        3.92436850       0.03778998      -1.33307953
H        2.51903909       1.25321946       1.81608925
H        3.09654888       2.09924920       0.35765988
H        5.15812780       0.86517966       0.34228987
H        4.91425821       1.15895948       2.06774917
H        5.23478805      -1.37766949       1.03028959
H        4.24649837      -1.07099958       2.45962895
H        3.31528879      -2.02400919      -0.11109995
H        2.38580894      -1.71910938       1.36630941
