19
Properties=species:S:1:pos:R:3 atomization_energy=-1844.46 smiles=C.C.C.C.C.C.O.H.H.H.H.H.H.H.H.H.H.H.H pbc="F F F"
C        2.00859920      -1.62077930      -0.29418989
C        1.69291929      -0.13686995      -0.19564993
C        2.90302897       0.69955971       0.13977994
C        3.68729849       0.39112985       1.39102942
C        2.86800892       0.55670981       2.66097895
C        3.58246848       1.47726943      -0.97093964
O        2.68003905       2.10731913      -0.05423998
H        1.13323961      -2.17188906      -0.65199974
H        2.28426908      -2.03351918       0.68148976
H        2.83752882      -1.80415928      -0.98470961
H        0.91171964       0.02218999       0.55583977
H        1.26697947       0.18915992      -1.15322954
H        4.56315845       1.04885960       1.45839947
H        4.08023831      -0.63035975       1.33756951
H        2.48298903       1.57748935       2.74958886
H        3.48652860       0.34761986       3.53935869
H        2.01550916      -0.12873995       2.68036884
H        3.24514877       1.34575943      -1.99165919
H        4.63413822       1.71966931      -0.88022965
