17
Properties=species:S:1:pos:R:3 atomization_energy=-1631.36 smiles=N.C.C.C.N.C.C.H.H.H.H.H.H.H.H.H.H pbc="F F F"
N        0.95558964      -0.04060998       0.21009992
C        2.41041906      -0.12854995       0.10974996
C        3.03089884       1.27138946       0.12339995
C        4.55931797       1.23197948      -0.03954999
N        5.08688812       2.58869892      -0.18726993
C        5.21773803       0.60430977       1.11691958
C        5.75779757       0.09478996       2.06302920
H        0.55855978      -0.97964961       0.18977993
H        0.57892978       0.44504982      -0.60287974
H        2.67591898      -0.65262975      -0.81499968
H        2.78083882      -0.72438973       0.94986960
H        2.75987893       1.78348931       1.05716956
H        2.59567890       1.85771924      -0.69763972
H        4.81228813       0.67212972      -0.94740962
H        4.88852800       3.11229889       0.66472973
H        4.58864794       3.06772887      -0.93407965
H        6.24143736      -0.34959985       2.90102874
