15
Properties=species:S:1:pos:R:3 atomization_energy=-1576.36 smiles=C.O.C.C.C.C.C.H.H.H.H.H.H.H.H pbc="F F F"
C       -0.46172984       1.44139941      -0.47334981
O       -1.27534954       0.55845979       0.28264990
C       -1.33084943      -0.75684969      -0.24717990
C       -0.22338992      -1.58321941       0.31940986
C        1.05588961      -1.20786948       0.44809981
C        1.63798930       0.02543999      -0.02077999
C        1.00606958       1.13835954      -0.42023982
H       -0.61367977       2.43926910      -0.04686998
H       -0.80854965       1.48411947      -1.51231938
H       -1.33401947      -0.77116968      -1.34253943
H       -2.28222898      -1.18560957       0.08385997
H       -0.50869981      -2.56944907       0.67995975
H        1.75708928      -1.90624922       0.90228964
H        2.72846898       0.02094999      -0.05303998
H        1.63226933       1.96169927      -0.76447968
