19
Properties=species:S:1:pos:R:3 atomization_energy=-1900.69 smiles=C.C.C.C.C.C.C.H.H.H.H.H.H.H.H.H.H.H.H pbc="F F F"
C        0.93744960      -0.00237000       0.05135998
C        2.47867895       0.05049998       0.06676997
C        2.97584875      -0.75946971       1.28122949
C        2.98854883      -0.64948974      -1.19149949
C        3.81267861      -0.16927994      -2.13487913
C        2.87906886       1.52128937       0.11823995
C        3.63549866       2.14129919       1.03570961
H        0.52378979       0.51591980      -0.82285967
H        0.51455980       0.46957983       0.94645960
H        0.57030977      -1.03558962       0.02159999
H        2.59995895      -0.34266985       2.22344917
H        4.07136836      -0.77921967       1.33339949
H        2.63578897      -1.80164934       1.23351946
H        2.63812884      -1.67512931      -1.32167946
H        4.22769843       0.83129965      -2.09267913
H        4.09873848      -0.78585971      -2.98154891
H        2.49052894       2.13434924      -0.69662970
H        4.07033834       1.62520935       1.88466922
H        3.84153849       3.20537884       0.95021965
