15
Properties=species:S:1:pos:R:3 atomization_energy=-1589.17 smiles=C.C.O.C.C.C.C.H.H.H.H.H.H.H.H pbc="F F F"
C        0.95283960       0.08745997      -0.15716993
C        2.43817903      -0.04918998       0.13887994
O        2.64985897      -1.24003957       0.93606960
C        3.25544868      -0.80994971       2.10685913
C        3.58605865      -1.65124931       3.08584877
C        3.45104855       0.60364973       2.09932919
C        2.97492875       1.07965959       0.95187961
H        0.59795979      -0.78295967      -0.71930974
H        0.74224967       0.98940959      -0.74031972
H        0.36400985       0.12298995       0.76654968
H        3.00617871      -0.15689994      -0.79220969
H        3.38623879      -2.71202884       2.98441892
H        4.05480836      -1.30799944       4.00056850
H        3.90579843       1.17539950       2.89211893
H        2.98132887       2.11410912       0.64525972
