15
Properties=species:S:1:pos:R:3 atomization_energy=-1505.19 smiles=N.N.C.C.C.C.C.H.H.H.H.H.H.H.H pbc="F F F"
N        0.76492971       2.89940877       0.11611995
N        1.66871934       1.89293926       0.11531996
C        2.89556880       2.30802909       0.08044997
C        4.02497852       1.35736944       0.08466997
C        5.28182815       1.81972925       0.08753997
C        6.43058739       0.94479964       0.09912996
C        7.68962700       1.39690950       0.12304995
H       -0.17596994       2.50470894       0.03849999
H        0.76991969       3.39517863       1.01105962
H        3.15472864       3.38280859       0.04759998
H        3.77345851       0.30346988       0.08969996
H        5.47460771       2.89076895       0.08433997
H        6.25532769      -0.12962995       0.08807996
H        7.92630666       2.45613896       0.13653994
H        8.52359644       0.70158971       0.13206995
