15
Properties=species:S:1:pos:R:3 atomization_energy=-1524.51 smiles=C.C.O.C.C.C.O.H.H.H.H.H.H.H.H pbc="F F F"
C        0.98123961       0.06153997       0.23631991
C        2.41861907      -0.10264996      -0.19793993
O        3.27252873       0.92081965       0.37843986
C        4.13482841      -0.02240999       1.06817953
C        5.54764802       0.02319999       0.53399981
C        3.24592873      -1.14617953       0.54511980
O        3.21556874      -2.35128902       0.66259974
H        0.38030985      -0.79390971      -0.08928996
H        0.54543981       0.96351965      -0.20594992
H        0.89224963       0.14254994       1.32502953
H        2.54590909      -0.15180994      -1.28435954
H        4.06887836       0.10569996       2.15353903
H        5.57066770      -0.06082998      -0.55807978
H        6.14392748      -0.79631966       0.94799963
H        6.03425775       0.96451964       0.80944966
