17
Properties=species:S:1:pos:R:3 atomization_energy=-1659.18 smiles=N.N.C.C.C.C.C.H.H.H.H.H.H.H.H.H.H pbc="F F F"
N        1.21723955       0.04318998       0.61352976
N        2.33927906       0.06151997      -0.13670995
C        2.96325893       1.19848957      -0.19009992
C        2.58627906       2.48477906       0.50341981
C        3.37538880       3.49622872      -0.31601988
C        4.65573828       2.76414887      -0.69631971
C        4.21638843       1.33844952      -1.01386958
H        0.86867969      -0.91810961       0.67084971
H        0.46525982       0.56585978       0.15631994
H        2.93866874       2.44306896       1.53859943
H        1.51276941       2.68700894       0.47707980
H        2.81551898       3.76226863      -1.21987956
H        3.57232855       4.41424818       0.24371990
H        5.16261778       3.23383878      -1.54557941
H        5.35264795       2.76277897       0.15144994
H        3.96584848       1.21878949      -2.07038919
H        4.96753796       0.60196977      -0.72224971
