17
Properties=species:S:1:pos:R:3 atomization_energy=-1650.84 smiles=C.C.O.C.C.C.O.H.H.H.H.H.H.H.H.H.H pbc="F F F"
C        0.99753958       0.04968998       0.13669996
C        2.49020898      -0.11048996      -0.05344998
O        3.22911867       0.93882961       0.63191973
C        4.16578845      -0.04448998       1.15637952
C        5.49755775       0.05961998       0.43471982
C        3.19930876      -1.19355952       0.78494968
O        3.72559859      -2.34972910       0.09328996
H        0.46100981      -0.78139969      -0.33171987
H        0.64665972       0.97788960      -0.32588989
H        0.72415973       0.07682997       1.19724949
H        2.75851886      -0.12308996      -1.11752959
H        4.28646814       0.07375998       2.23879924
H        5.37419804       0.04518998      -0.65315977
H        6.15587738      -0.77130972       0.71286974
H        6.00570748       0.99356959       0.70039972
H        2.61131890      -1.52537942       1.64929930
H        4.18152836      -2.00254917      -0.69364973
