13
Properties=species:S:1:pos:R:3 atomization_energy=-1421.13 smiles=C.C.C.C.C.O.C.H.H.H.H.H.H pbc="F F F"
C        0.99999962       0.00000000       0.00000000
C        2.19015911       0.00000000       0.00000000
C        3.59615871       0.00000000       0.00000000
C        4.35423826      -1.09208955      -0.06707997
C        5.78450785      -0.71118972      -0.04259998
O        5.81327764       0.72749972      -0.01758000
C        4.45554825       1.20743951       0.07595997
H       -0.06520997      -0.00249000      -0.00047000
H        3.99860839      -2.10962923      -0.12697995
H        6.28941764      -1.08883953       0.85070966
H        6.31403760      -1.05651961      -0.93435962
H        4.27642838       1.89978929      -0.75191971
H        4.34042817       1.73633932       1.02701957
