15
Properties=species:S:1:pos:R:3 atomization_energy=-1584.95 smiles=C.C.C.C.C.C.O.H.H.H.H.H.H.H.H pbc="F F F"
C        0.99868958       0.03434999       0.17143993
C        2.45236913       0.07326997      -0.16739993
C        3.16274874       1.20378954      -0.26995991
C        4.62415802       1.33627947      -0.61454975
C        4.79875813       2.82238895      -0.64077977
C        3.62716846       3.38161860      -0.34129985
O        2.61358887       2.47134898      -0.10151996
H        0.70940971      -0.98410963       0.44979983
H        0.39418984       0.33236988      -0.69052972
H        0.76720972       0.68594972       1.02012960
H        2.94330886      -0.87984963      -0.33803986
H        4.84789812       0.89993962      -1.59225943
H        5.25853798       0.88711967       0.15572994
H        5.71629766       3.34149869      -0.86471966
H        3.35284880       4.41807807      -0.26264990
