15
Properties=species:S:1:pos:R:3 atomization_energy=-1564.2 smiles=C.C.C.C.C.C.O.H.H.H.H.H.H.H.H pbc="F F F"
C        0.94935964       0.00569000       0.02771999
C        2.46999901       0.00998999       0.02767999
C        3.02738892       1.43281939       0.00000000
C        4.47138809       1.43281939       0.00000000
C        5.66154783       1.43281939       0.00000000
C        7.10357706       1.43203943      -0.00003000
O        7.73499717       2.47906906      -0.00010000
H        0.57332980      -1.02199962       0.04771998
H        0.55562977       0.49400981      -0.86940968
H        0.55557980       0.52854980       0.90515966
H        2.83110901      -0.55281981      -0.84211968
H        2.83106889      -0.51854979       0.91872965
H        2.65570901       1.98877921       0.86888969
H        2.65570901       1.95456927      -0.88985968
H        7.58015712       0.43872984       0.00001000
