13
Properties=species:S:1:pos:R:3 atomization_energy=-1388.07 smiles=C.C.C.C.C.O.O.H.H.H.H.H.H pbc="F F F"
C        1.00094958      -0.05382997       0.00300000
C        2.51999896       0.00000000       0.00000000
C        3.00201878       1.36116943       0.00000000
C        3.39929870       2.48306901       0.00000000
C        3.92325849       3.82696838       0.00000000
O        5.27411791       3.87853858       0.00000000
O        3.19564870       4.80391830       0.00000000
H        0.65726974      -1.09312954       0.00163000
H        0.58507979       0.44297982      -0.88048967
H        0.58878975       0.43940984       0.89021963
H        2.89556880      -0.53272976      -0.88085965
H        2.89915897      -0.53416982       0.87843967
H        5.66020795       2.98197888       0.00000000
