17
Properties=species:S:1:pos:R:3 atomization_energy=-1714.98 smiles=C.C.C.C.C.O.C.H.H.H.H.H.H.H.H.H.H pbc="F F F"
C        0.79084969       0.07533997       0.19291993
C        2.12950927       0.09946996       0.23030991
C        3.01561893       1.31033944       0.11312996
C        2.35823897       2.67921897       0.09495997
C        3.52451858       3.58585855       0.42357984
O        4.36811850       2.85739890       1.32519948
C        3.98449853       1.47246946       1.28204944
H        0.25399991      -0.86540966       0.27927989
H        0.19232993       0.97207961       0.07227997
H        2.64994905      -0.85192968       0.33881988
H        3.60385860       1.20308957      -0.80888967
H        1.60094935       2.76358895       0.88420967
H        1.88902926       2.92965875      -0.86090965
H        4.11145850       3.81875853      -0.47143983
H        3.21028870       4.52417831       0.88907966
H        4.88127801       0.85568967       1.16634951
H        3.51904855       1.22777955       2.24372903
