19
Properties=species:S:1:pos:R:3 atomization_energy=-1848.14 smiles=C.C.C.O.C.C.C.H.H.H.H.H.H.H.H.H.H.H.H pbc="F F F"
C        2.90777886      -1.04756962      -0.30097987
C        2.32441902       0.24028990       0.26073990
C        3.37946874       1.28587946       0.43638981
O        3.52584862       2.18189904      -0.67351975
C        3.07468891       2.77049879       0.55639976
C        1.67187928       3.28929867       0.50610979
C        4.08910851       3.65911864       1.20675947
H        2.12343919      -1.80078927      -0.42216984
H        3.67369859      -1.45571946       0.36638984
H        3.37168861      -0.87303965      -1.27706944
H        1.86391927       0.03356998       1.23354949
H        1.52775940       0.58112980      -0.40937984
H        4.27340848       0.91001962       0.91858961
H        1.05247960       2.76211887      -0.22567990
H        1.66322937       4.34935817       0.23020991
H        1.19931949       3.19023872       1.48863935
H        5.09688801       3.23210880       1.16163949
H        3.83624837       3.81372856       2.26074903
H        4.11837843       4.63606805       0.71303975
