15
Properties=species:S:1:pos:R:3 atomization_energy=-1513.66 smiles=C.C.O.C.C.C.O.H.H.H.H.H.H.H.H pbc="F F F"
C        0.86149966      -0.16216994       0.03203999
C        2.28833918      -0.15413994      -0.38236985
O        2.52318893       0.28933989      -1.72561928
C        2.99709882       1.14319950      -0.67285972
C        4.48258807       1.24682955      -0.58475977
C        4.98033822       1.42878940       0.82599968
O        4.25811822       1.51577935       1.81430930
H        0.78139969       0.01850999       1.10888951
H        0.41073984      -1.13613953      -0.18496993
H        0.27712990       0.60596979      -0.48687981
H        2.85169899      -0.99520962      -0.00276000
H        2.48354895       2.07758921      -0.49225980
H        4.82565815       2.10681914      -1.17009953
H        4.96869818       0.35116985      -0.98999961
H        6.07741750       1.48661944       0.92960961
