17
Properties=species:S:1:pos:R:3 atomization_energy=-1707.74 smiles=C.C.C.C.C.C.O.H.H.H.H.H.H.H.H.H.H pbc="F F F"
C        1.02687959       0.00423000       0.03029999
C        2.54319905      -0.00134000      -0.02219999
C        3.24549876      -0.94920963      -1.04599961
C        4.74254831      -0.75109969      -0.84675967
C        4.74952830       0.77857970      -0.80291970
C        3.25404875       1.00096958      -0.98684963
O        2.86065877       0.05965998      -2.08395919
H        0.66977976       0.85200967       0.62431976
H        0.65853973      -0.91357963       0.50046981
H        0.57337976       0.07740997      -0.96319963
H        2.95917873      -0.03654999       0.99259963
H        2.82461880      -1.94001922      -1.21724952
H        5.10505799      -1.19558952       0.08474996
H        5.32635806      -1.13844949      -1.68689930
H        5.33468801       1.20765954      -1.62177941
H        5.11842801       1.16642950       0.15112994
H        2.84152878       2.00370927      -1.09883954
