19
Properties=species:S:1:pos:R:3 atomization_energy=-1787.54 smiles=N.C.C.C.N.C.C.H.H.H.H.H.H.H.H.H.H.H.H pbc="F F F"
N        2.04484923       2.65935898      -2.59577908
C        3.33659867       2.74566889      -1.91223919
C        3.54265868       1.55393940      -0.97152959
C        4.87917812       1.62253931      -0.25006989
N        4.98755792       2.66412905       0.78556972
C        5.60598802       0.32213986       0.00510000
C        6.12343768       1.27500953      -1.03260959
H        1.93382928       3.47888851      -3.19156876
H        1.29782948       2.71220901      -1.90409923
H        3.38618857       3.68801864      -1.35562949
H        4.13228844       2.77071882      -2.66396908
H        3.47138873       0.62249976      -1.54943945
H        2.73723901       1.51824942      -0.22590991
H        5.92479746       2.68974901       1.18662949
H        4.36231841       2.45256898       1.56351941
H        5.15696808      -0.60327975      -0.33970988
H        6.18036764       0.20817991       0.91752963
H        7.03853716       1.81569927      -0.82181969
H        6.01863744       0.99337958      -2.07435925
