17
Properties=species:S:1:pos:R:3 atomization_energy=-1725.39 smiles=C.C.C.C.C.C.O.H.H.H.H.H.H.H.H.H.H pbc="F F F"
C        2.53593897      -0.45912981       1.46768942
C        2.63038908       0.03177999       0.03086998
C        3.16334878       1.42444943      -0.05221998
C        4.32782826       1.81861925      -0.56461976
C        4.44813829       3.28392881      -0.41003984
C        3.03781878       3.65089845       0.03693999
O        2.36935896       2.44590895       0.46120981
H        2.15309921      -1.48441936       1.49141941
H        1.85909923       0.16625993       2.05932913
H        3.51771851      -0.45334981       1.95300923
H        1.63870933      -0.00319000      -0.43489983
H        3.27005866      -0.65318974      -0.53844980
H        5.08030783       1.17475958      -0.99357962
H        5.19040803       3.53180869       0.35554985
H        4.71811810       3.79132861      -1.34031942
H        2.46146895       4.08684838      -0.78795967
H        3.04680884       4.36787828       0.86427966
