17
Properties=species:S:1:pos:R:3 atomization_energy=-1726.01 smiles=C.C.C.C.C.C.O.H.H.H.H.H.H.H.H.H.H pbc="F F F"
C        0.88878967      -0.01082999       0.17754992
C        2.38331919       0.02959999      -0.06171998
C        3.18600863       1.07404963       0.76545967
C        4.21225828      -0.00903999       1.20231958
C        5.55860778       0.01210999       0.50309979
C        3.21430885      -1.05452961       0.65627972
O        3.12707869      -2.26200917       0.74755974
H        0.44268983      -0.87822967      -0.31968989
H        0.41118984       0.88818962      -0.22527991
H        0.65040974      -0.07273997       1.24436945
H        2.62135891       0.06501997      -1.13278958
H        2.63241884       1.50441939       1.60913939
H        3.59621851       1.90083924       0.17633993
H        4.32725850      -0.07075997       2.29099900
H        5.44837788       0.05613998      -0.58578979
H        6.13478753      -0.88568965       0.74858969
H        6.14176752       0.88300964       0.81859969
