17
Properties=species:S:1:pos:R:3 atomization_energy=-1650.82 smiles=C.C.O.C.C.C.O.H.H.H.H.H.H.H.H.H.H pbc="F F F"
C        0.99156961       0.09507996       0.08421996
C        2.48928898      -0.10862995      -0.02511999
O        3.21330886       0.93770963       0.67482973
C        4.10549844      -0.03947999       1.26468956
C        3.20502886      -1.20986958       0.81251971
C        2.42854906      -1.84585929       1.95577920
O        3.85267841      -2.26175911       0.05030998
H        0.45612981      -0.76418969      -0.33073988
H        0.68385972       0.98328961      -0.47733980
H        0.66952976       0.23152990       1.12157951
H        2.78821901      -0.11875995      -1.08268959
H        5.09621782       0.00193000       0.80030971
H        4.20736835       0.10560996       2.34425907
H        1.96666919      -1.09516951       2.60582893
H        3.09005866      -2.45645892       2.57980903
H        1.63462939      -2.49591898       1.57319934
H        4.36764815      -1.80573925      -0.63870977
