17
Properties=species:S:1:pos:R:3 atomization_energy=-1697.89 smiles=C.C.C.C.C.C.O.H.H.H.H.H.H.H.H.H.H pbc="F F F"
C        1.00073958      -0.05369998       0.00305000
C        2.51999896       0.00000000       0.00000000
C        3.00201878       1.36116943       0.00000000
C        3.39929870       2.48306901       0.00000000
C        3.88131852       3.84423844       0.00000000
C        2.73582898       4.85103814      -0.02937999
O        3.24036861       6.18456745       0.01338000
H        0.65728974      -1.09290963       0.00300000
H        0.58522974       0.44196984      -0.88104966
H        0.58881978       0.44068982       0.88953966
H        2.89553877      -0.53281978      -0.88080963
H        2.89911884      -0.53408976       0.87849966
H        4.53869796       4.02197830      -0.85945969
H        4.50206804       4.02915839       0.88496962
H        2.05595925       4.71361803       0.81902966
H        2.14797916       4.74552834      -0.94754961
H        3.66232855       6.30818755       0.88187964
