17
Properties=species:S:1:pos:R:3 atomization_energy=-1643.43 smiles=C.C.C.O.C.O.C.H.H.H.H.H.H.H.H.H.H pbc="F F F"
C        0.86772966      -0.11348996       0.16602993
C        2.37248913       0.00484000      -0.03807998
C        2.79417882       0.01232999      -1.50158937
O        2.23080917       1.13813950      -2.16818913
C        3.06451870       1.08049960       0.81834969
O        3.91012844       0.09330996       1.45480943
C        3.19129876      -0.98323959       0.81231967
H        0.60876979      -0.17112994       1.22927954
H        0.47700982      -1.01418960      -0.31956987
H        0.34170986       0.75226969      -0.24984989
H        2.47155892      -0.89834968      -2.01838915
H        3.88250851       0.08205997      -1.60523935
H        1.30506950       0.92650966      -2.37872903
H        2.43471907       1.58953943       1.55498935
H        3.65716862       1.82471923       0.27790989
H        3.86905850      -1.64700939       0.26661989
H        2.63186901      -1.57196935       1.54663933
