15
Properties=species:S:1:pos:R:3 atomization_energy=-1532.01 smiles=C.C.C.C.O.C.O.H.H.H.H.H.H.H.H pbc="F F F"
C        1.09919962      -0.55154976       0.46715981
C        2.30971920       0.01141000      -0.27308989
C        3.04834881      -1.09170955      -1.02168957
C        1.87935929       1.09056951      -1.24941948
O        0.77283967       1.17360958      -1.76841933
C        2.91316890       2.12244904      -1.64021941
O        4.03070846       2.12957917      -1.15101950
H        0.55745980       0.24623990       0.98796960
H        1.40869942      -1.29221953       1.21247957
H        0.39510984      -1.03508956      -0.21949992
H        2.97285887       0.46232981       0.47300983
H        2.40939914      -1.55094940      -1.78455932
H        3.37705872      -1.87840926      -0.33399987
H        3.93480845      -0.69918973      -1.53168934
H        2.56348900       2.84992889      -2.39017906
