20
Properties=species:S:1:pos:R:3 atomization_energy=-1914.95 smiles=N.C.C.C.C.C.C.H.H.H.H.H.H.H.H.H.H.H.H.H pbc="F F F"
N        1.13856960       2.00314922       0.34092987
C        2.52115892       1.94962926      -0.11811995
C        3.38254869       1.17796949       0.87962966
C        4.82231829       1.10333962       0.38786985
C        5.67076802       2.40299901       0.45751981
C        6.86828724       1.51432945       0.84727966
C        5.84420791       0.49271980       1.38337949
H        0.58837978       2.56419906      -0.30898987
H        1.09343953       2.48129891       1.23958954
H        2.90225886       2.96894874      -0.24436991
H        2.55568894       1.46513937      -1.10008959
H        2.98865885       0.16109993       1.00053961
H        3.33944875       1.65846939       1.86504920
H        4.88430801       0.62036977      -0.59866978
H        5.36820770       3.10175876       1.24650947
H        5.77567777       2.95167894      -0.48201982
H        7.44622726       1.15089952      -0.01031999
H        7.55310721       1.93524927       1.58743940
H        6.09584777      -0.55833981       1.22028948
H        5.59469771       0.63865975       2.44108891
