19
Properties=species:S:1:pos:R:3 atomization_energy=-1845.91 smiles=C.C.C.O.C.C.C.H.H.H.H.H.H.H.H.H.H.H.H pbc="F F F"
C        2.40741910      -0.53286980      -1.53453942
C        2.43436908      -0.00786999      -0.10825996
C        3.39774862       1.16260958       0.01674999
O        2.88352881       2.35151914      -0.64812974
C        3.19184884       3.15457876       0.51905981
C        3.40011877       1.89906926       1.37324940
C        4.67754828       1.83015924       2.18281904
H        1.72700937      -1.38624951      -1.61360931
H        3.40360876      -0.85856965      -1.85198930
H        2.06903922       0.23928991      -2.23362922
H        2.74800901      -0.81465966       0.56361978
H        1.42213947       0.28780988       0.18988993
H        4.40157813       0.92493965      -0.36154985
H        4.07452831       3.77789853       0.34351986
H        2.34712908       3.78346849       0.81387971
H        2.52408899       1.67113932       1.99357918
H        5.55705796       2.06949922       1.57593940
H        4.81608823       0.82638966       2.59707909
H        4.64161833       2.53647896       3.01828884
