13
Properties=species:S:1:pos:R:3 atomization_energy=-1427.61 smiles=C.C.C.C.C.C.O.H.H.H.H.H.H pbc="F F F"
C        0.99999962       0.00000000       0.00000000
C        2.44399905       0.00000000       0.00000000
C        3.63415853       0.00000000       0.00000000
C        5.04015789       0.00000000       0.00000000
C        5.72955767      -1.14992956      -0.02442999
C        5.80793781       1.27663946       0.02711999
O        5.28657803       2.38439917       0.05064998
H        0.60601976       1.02087959       0.01169000
H        0.60596979      -0.52054980       0.87824966
H        0.60596979      -0.50029980      -0.88993967
H        5.21590812      -2.10749917      -0.04476998
H        6.81412737      -1.18042959      -0.02507999
H        6.90620708       1.16858958       0.02481999
