17
Properties=species:S:1:pos:R:3 atomization_energy=-1700.7 smiles=C.C.C.C.O.C.C.H.H.H.H.H.H.H.H.H.H pbc="F F F"
C        0.92413964       0.08737997       0.40595983
C        2.36412914       0.15200995      -0.09916996
C        3.27804873       1.09008958       0.72062975
C        3.92636848      -0.19071993       1.22950953
O        3.10251878      -1.01072963       0.37417984
C        2.43112915       0.39705985      -1.57251943
C        2.50680909      -0.61569975      -2.44399905
H        0.88875964      -0.09683997       1.48554943
H        0.36891984      -0.72136970      -0.08250997
H        0.39589986       1.02804958       0.21335991
H        2.78229881       1.68924939       1.48993936
H        3.95495836       1.73196932       0.14790995
H        4.98834823      -0.30251988       0.99400959
H        3.75301842      -0.41557983       2.28577902
H        2.40232907       1.42382945      -1.92500929
H        2.53337907      -1.65087939      -2.11266918
H        2.54994891      -0.43103982      -3.51239861
