15
Properties=species:S:1:pos:R:3 atomization_energy=-1563.68 smiles=C.C.C.C.O.C.C.H.H.H.H.H.H.H.H pbc="F F F"
C        0.97696960      -0.05333998       0.04174999
C        2.49856897       0.00879000      -0.03592999
C        3.01711878      -0.77352967      -1.23935954
C        2.94565882       1.45853939      -0.11022996
O        3.11163879       2.08032915      -1.15194959
C        3.14821875       2.13322914       1.15652953
C        3.31616867       2.69531896       2.20476909
H        0.60637976       0.48260981       0.92220962
H        0.63138977      -1.09015960       0.10824996
H        0.51470981       0.40527983      -0.83957964
H        2.92630880      -0.44066982       0.86887966
H        2.60238889      -0.38960984      -2.17803913
H        2.74981898      -1.83234922      -1.15901954
H        4.10825844      -0.70331969      -1.30715943
H        3.46788864       3.20412879       3.12838879
