15
Properties=species:S:1:pos:R:3 atomization_energy=-1574.79 smiles=C.C.C.C.C.C.O.H.H.H.H.H.H.H.H pbc="F F F"
C        0.95072961      -0.05873998       0.25429990
C        2.40960908       0.03096999      -0.00002000
C        3.15665873       1.12726958      -0.17520993
C        4.55429809       0.78259972      -0.41192983
C        5.32116811      -0.02618999       0.60073979
C        4.50273824      -0.74189969      -0.43488983
O        3.14233867      -1.16863954      -0.07335998
H        0.59215976      -1.08197953       0.10904996
H        0.39591985       0.58836975      -0.43071984
H        0.72315975       0.23755991       1.28169946
H        2.78836889       2.14306905      -0.15035994
H        5.07713804       1.28516952      -1.21423958
H        6.39948756      -0.06458997       0.50332979
H        4.97520782      -0.04571998       1.62776938
H        5.00783778      -1.26570948      -1.23638947
