15
Properties=species:S:1:pos:R:3 atomization_energy=-1567.33 smiles=C.C.C.O.C.C.C.H.H.H.H.H.H.H.H pbc="F F F"
C        1.15223952       0.11429996       0.21495991
C        2.45956915      -0.06379998      -0.01498000
C        3.12415871      -1.41183943      -0.15987994
O        4.42513830      -1.16311954      -0.73725970
C        4.71236797       0.25621990      -0.66396971
C        4.01405838       1.16296953      -1.63346942
C        3.45540859       0.98133960      -0.24960990
H        0.72660974       1.11098954       0.27065991
H        0.47999981      -0.72770972       0.34299987
H        2.57021893      -2.07816919      -0.82681969
H        3.27180883      -1.88640930       0.81507967
H        5.65971792       0.57304977      -0.24545990
H        4.48468848       2.11118914      -1.86550921
H        3.49492871       0.71506969      -2.47265909
H        3.54738863       1.77474931       0.48020982
