15
Properties=species:S:1:pos:R:3 atomization_energy=-1530.98 smiles=N.C.N.C.C.C.C.H.H.H.H.H.H.H.H pbc="F F F"
N        3.77457861      -0.94777960      -1.51533940
C        3.08040876      -0.55542979      -0.41068985
N        2.27422906      -1.39085948       0.16276993
C        3.17372868       0.80229966       0.18622993
C        4.05943839       1.72443938      -0.21577991
C        4.13515846       3.03836886       0.38032985
C        5.00579794       3.97222842      -0.02058999
H        4.06370834      -0.20919991      -2.14539907
H        3.40101858      -1.74497927      -2.01343916
H        2.31901912      -2.29300907      -0.31236989
H        2.47498911       0.99196962       0.99555960
H        4.77131811       1.50526937      -1.00548959
H        3.44926861       3.27000870       1.19356949
H        5.71388789       3.79911858      -0.82470970
H        5.02676818       4.94595809       0.45902983
