17
Properties=species:S:1:pos:R:3 atomization_energy=-1622.97 smiles=C.C.N.C.C.C.H.H.H.H.H.H.H.H.H.H.H pbc="F F F"
C        0.89135966      -0.02529999       0.08899996
C        2.39913909       0.00172000       0.01561000
N        2.88977881       0.03803998      -1.36778946
C        3.15645888       1.06962955       0.84471970
C        4.20861840      -0.00073000       1.20153950
C        3.18555873      -1.08173955       0.79330966
H        0.54529977      -0.05679998       1.12833959
H        0.48404980      -0.90617964      -0.41959985
H        0.45376982       0.86610963      -0.37517986
H        3.90336848       0.04028999      -1.47007938
H        2.55400892       0.83992969      -1.90197927
H        2.59904904       1.42259947       1.72145935
H        3.53534864       1.94574928       0.30968987
H        5.10179787       0.02634999       0.56692979
H        4.52304838      -0.02157999       2.24891923
H        3.58852846      -1.92148928       0.21798992
H        2.63955905      -1.49140944       1.65261934
