19
Properties=species:S:1:pos:R:3 atomization_energy=-1906.84 smiles=C.C.C.C.C.C.C.H.H.H.H.H.H.H.H.H.H.H.H pbc="F F F"
C        0.69600972       0.32611989       0.13086995
C        2.09798918      -0.22576991       0.17622993
C        2.17190925      -1.67884930       0.55448980
C        3.15244883       0.56534976      -0.10649996
C        4.61336833       0.21236992      -0.11031996
C        5.36897781       1.04433958       0.88662965
C        6.36115744       1.88913927       0.57220976
H        0.67498971       1.39183940      -0.12084996
H        0.20990993       0.20647992       1.10490962
H        0.10374996      -0.20508992      -0.62155976
H        1.55132941      -2.27535901      -0.12339995
H        1.79958931      -1.82031933       1.57465933
H        3.18083887      -2.09296918       0.51181979
H        2.95611871       1.60363932      -0.37685986
H        5.00226783       0.37361986      -1.12334961
H        4.79152833      -0.84039966       0.12314996
H        5.08145795       0.93376960       1.93021918
H        6.68678739       2.02986921      -0.45347983
H        6.86870713       2.45919898       1.34340947
