17
Properties=species:S:1:pos:R:3 atomization_energy=-1696.08 smiles=C.C.C.C.C.O.C.H.H.H.H.H.H.H.H.H.H pbc="F F F"
C        2.25519900       2.65320892      -0.65525974
C        2.72784900       1.41210943      -0.47821981
C        3.47213866       0.96291961       0.74542968
C        4.86499811       0.51059981       0.34194986
C        5.90796747       1.60012940       0.05597998
O        6.84367738       0.99645960       0.98352958
C        5.79754782       0.13853995       1.50129944
H        1.71258927       2.91612875      -1.55896938
H        2.39045915       3.43040861       0.09013996
H        2.55132891       0.66815973      -1.25348946
H        2.92511881       0.12803995       1.19821958
H        3.51920853       1.76062936       1.49620942
H        4.85119811      -0.27313988      -0.42760982
H        5.65125776       2.61765897       0.36761987
H        6.29966734       1.61311941      -0.96481960
H        6.10814741      -0.90950966       1.52959940
H        5.48729796       0.45868981       2.50087906
