19
Properties=species:S:1:pos:R:3 atomization_energy=-1849.26 smiles=C.C.C.C.C.C.O.H.H.H.H.H.H.H.H.H.H.H.H pbc="F F F"
C        1.24495953      -0.35872986       0.10035996
C        2.75015887      -0.55482975       0.00179000
C        3.48128869       0.78583971      -0.10196996
C        4.98136824       0.61219979      -0.18768992
C        5.62119754       0.64131976      -1.36960940
C        5.71943767       0.41692984       1.10862961
O        5.61316785       1.59937934       1.88869920
H        0.73869969      -1.32775950       0.14508994
H        0.86157965       0.18531993      -0.76826970
H        0.98239964       0.20380993       1.00218960
H        2.97292877      -1.17043955      -0.87809966
H        3.09474875      -1.11335956       0.88042968
H        3.23041868       1.41998948       0.75614972
H        3.11792865       1.32510952      -0.98674958
H        5.08150792       0.77969967      -2.30227922
H        6.69814735       0.51783979      -1.43981944
H        6.78281710       0.21113991       0.95023965
H        5.30123797      -0.41753985       1.67905937
H        5.83565791       2.34025911       1.29911953
