15
Properties=species:S:1:pos:R:3 atomization_energy=-1482.8 smiles=C.C.C.C.C.N.H.H.H.H.H.H.H.H.H pbc="F F F"
C        0.94341963       0.00081000       0.98538964
C        0.29873990       0.98638963      -0.03263999
C       -1.20869953       0.77545969       0.07447997
C       -1.22171957      -0.75016972       0.08549996
C        0.28177989      -0.98826962      -0.01806999
N        0.79135971      -0.01288999      -1.07328961
H        2.03944922      -0.00829000       1.02074958
H        0.55241980       0.01169000       2.00669927
H        0.69735976       1.99892923      -0.10102996
H       -1.62258940       1.19860955       0.99472962
H       -1.74878935       1.18640959      -0.78415969
H       -1.76878925      -1.16407954      -0.76721969
H       -1.64284933      -1.15275957       1.01164963
H        0.66301974      -2.00839922      -0.07172997
H        0.25946990      -0.01471999      -1.94333927
