19
Properties=species:S:1:pos:R:3 atomization_energy=-1869.0 smiles=C.C.C.C.O.C.C.H.H.H.H.H.H.H.H.H.H.H.H pbc="F F F"
C        1.32608945      -0.58563978       1.56674938
C        1.63978931      -0.15260994       0.14128994
C        3.05669870       0.39613985      -0.00987999
C        4.14260829      -0.66939975       0.02748999
O        3.88548854      -1.87245929       0.05759997
C        5.56993796      -0.14809995      -0.00688000
C        6.60284738      -1.25991949       0.03314999
H        0.28839990      -0.92692966       1.63561941
H        1.45467948       0.24646990       2.26604899
H        1.97174924      -1.40743940       1.88918923
H        0.92838965       0.63147973      -0.14434994
H        1.47752946      -0.99527964      -0.54077976
H        3.26228863       1.13189960       0.77524969
H        3.13922869       0.89934967      -0.98008961
H        5.71300776       0.51395979       0.85322970
H        5.69709777       0.43580983      -0.92442963
H        6.50066735      -1.85925921       0.94393962
H        7.61387716      -0.84194967       0.01002000
H        6.49093746      -1.93169923      -0.82458966
