21
Properties=species:S:1:pos:R:3 atomization_energy=-1994.55 smiles=C.C.C.C.O.C.C.H.H.H.H.H.H.H.H.H.H.H.H.H.H pbc="F F F"
C        0.97804964      -0.03211999       0.00201000
C        2.49860909      -0.01180000       0.02508999
C        3.03955885       1.41945946      -0.04281998
C        4.57265821       1.46112944      -0.01597000
O        5.08951792       0.77203971      -1.15200952
C        5.08573799       2.90574885      -0.01279999
C        6.60586728       2.98159887       0.04325998
H        0.61206977      -1.06194959       0.05886998
H        0.59448979       0.41399983      -0.92110964
H        0.56474978       0.52293978       0.85001966
H        2.87400886      -0.60033978      -0.81966970
H        2.85103889      -0.49769981       0.94211963
H        2.64087900       1.99912920       0.79857967
H        2.67566892       1.88727921      -0.96653962
H        4.93860818       0.94146962       0.87682967
H        4.76907791       1.22843953      -1.94865929
H        4.66948832       3.44560855       0.84581967
H        4.75134811       3.42261865      -0.92083965
H        6.99080719       2.47429899       0.93332960
H        6.92940743       4.02652834       0.08123996
H        7.06026743       2.52200902      -0.83971969
