15
Properties=species:S:1:pos:R:3 atomization_energy=-1586.9 smiles=C.C.C.C.C.C.C.H.H.H.H.H.H.H.H pbc="F F F"
C        0.98198960       0.00038000      -0.01097999
C        2.51999896       0.00000000       0.00000000
C        3.00983877      -0.71675974       1.26976949
C        3.00583882      -0.74611968      -1.18631951
C        3.40215862      -1.34847943      -2.14849921
C        3.00201878       1.36116943       0.00000000
C        3.39929870       2.48306901       0.00000000
H        0.58697978       0.49854979      -0.90561966
H        0.57481975       0.52573980       0.86151966
H        0.58083974      -1.02047959      -0.00314000
H        2.65925906      -0.21000991       2.17705908
H        4.10601849      -0.74722969       1.31597942
H        2.65378903      -1.75357935       1.30752947
H        3.75682862      -1.87708932      -3.00302886
H        3.75763860       3.48663862      -0.00467000
