19
Properties=species:S:1:pos:R:3 atomization_energy=-1846.75 smiles=C.C.C.C.C.O.C.H.H.H.H.H.H.H.H.H.H.H.H pbc="F F F"
C        0.93144961       0.00556000       0.07023997
C        2.44576916       0.02740999       0.01932999
C        3.15437866       1.04992961       0.94158960
C        4.23329841      -0.02800999       1.22451956
C        5.49028808       0.01346999       0.36540985
O        6.31585741       1.09317963       0.78768968
C        3.18078866      -1.08590959       0.80566967
H        0.54052976      -0.85038965      -0.48850981
H        0.51886981       0.91566963      -0.37598985
H        0.56267978      -0.06446997       1.09840957
H        2.79633877       0.09790996      -1.02056960
H        2.57923901       1.32743942       1.83297929
H        3.49408870       1.96525928       0.44924981
H        4.50226839      -0.10001996       2.28558902
H        5.26935794       0.13770994      -0.69891973
H        6.06525765      -0.90974963       0.48748980
H        5.83547775       1.91820922       0.60581978
H        3.54630865      -1.92268923       0.20359992
H        2.61342889      -1.48862939       1.65317939
