13
Properties=species:S:1:pos:R:3 atomization_energy=-1397.14 smiles=C.C.C.C.C.O.O.H.H.H.H.H.H pbc="F F F"
C        1.16672952       0.20380993       1.00696958
C        1.97576926       0.33649988      -0.05157998
C        3.09868890       1.31041943      -0.07403997
C        2.72362902       2.74974883      -0.44218984
C        3.36435864       3.06512884       0.91582961
O        3.60151848       4.04767849       1.57916937
O        3.61332859       1.76460926       1.21177948
H        0.35769987      -0.52119980       0.99707958
H        1.28697949       0.79402969       1.91124929
H        1.82766923      -0.28168990      -0.93157962
H        3.92656857       0.92164963      -0.68188971
H        1.66037928       2.99634889      -0.48917981
H        3.25719860       3.17221873      -1.29556948
