19
Properties=species:S:1:pos:R:3 atomization_energy=-1909.4 smiles=C.C.C.C.C.C.C.H.H.H.H.H.H.H.H.H.H.H.H pbc="F F F"
C        0.88251967      -0.11513995      -0.15236994
C        2.39075917      -0.09489996      -0.02630999
C        2.96137881      -1.49694938      -0.09640996
C        3.12767873       1.03368957       0.15216994
C        2.51955889       2.42076893       0.20530993
C        4.59029819       0.99557960       0.24553990
C        5.38653805       1.97599926       0.69452974
H        0.39513984       0.82679970       0.10196996
H        0.45568981      -0.86210967       0.52670980
H        0.59803978      -0.38126985      -1.17570948
H        2.33447896      -2.19475910       0.47103982
H        3.96186846      -1.59202943       0.33007988
H        2.99066891      -1.83602922      -1.13713951
H        1.50112937       2.47202901      -0.18390993
H        3.09199884       3.12302877      -0.41258983
H        2.50571903       2.79158889       1.23586954
H        5.08986816       0.08928996      -0.08713997
H        5.01017791       2.92344888       1.06296965
H        6.46341771       1.83738929       0.71418975
