13
Properties=species:S:1:pos:R:3 atomization_energy=-1378.05 smiles=C.C.C.O.C.O.C.H.H.H.H.H.H pbc="F F F"
C        0.56187976       1.23652952       0.66812977
C       -0.85453967       0.76118972       0.43422982
C       -0.82808968       0.00710000      -0.85984967
O        0.56056979       0.01038000      -1.31493943
C        1.21809949       0.00279000      -0.01079000
O        0.57572978      -1.09149960       0.71437969
C       -0.81695966      -0.73242970       0.46197983
H        0.76760973       2.17227916       0.14147994
H        0.79241969       1.30735953       1.73447926
H       -1.69187931       1.34250953       0.76115970
H       -1.67186931      -0.04129998      -1.52652941
H        2.30681916      -0.05829998      -0.05207998
H       -1.65218937      -1.32893953       0.78651968
