11
Properties=species:S:1:pos:R:3 atomization_energy=-1187.29 smiles=N.N.C.C.C.C.C.H.H.H.H pbc="F F F"
N        1.04119957      -0.05023998      -0.00013000
N        2.37727914       0.02590999      -0.00000000
C        2.96942893       1.18089956       0.00000000
C        2.22984905       2.41615909      -0.00002000
C        1.62791939       3.45585875      -0.00001000
C        4.40246836       1.08803951       0.00001000
C        5.60236757       1.01558959       0.00000000
H        0.61294978      -0.96911964       0.00007000
H        0.43652982       0.76269967       0.00006000
H        1.09792951       4.38052815      -0.00000000
H        6.66471749       0.94247964      -0.00000000
