17
Properties=species:S:1:pos:R:3 atomization_energy=-1728.41 smiles=C.C.C.C.C.C.O.H.H.H.H.H.H.H.H.H.H pbc="F F F"
C        0.98002962      -0.02265999       0.02141999
C        2.49398890       0.01953999      -0.15544993
C        3.05416883      -1.24262950      -0.81910965
C        3.43579866      -0.73687969      -2.15549913
C        3.27561878       0.58318977      -2.18042921
C        3.57583847       1.50857945      -3.30699870
O        2.81643897       1.15159961      -0.99954959
H        0.62645978       0.90892961       0.47577983
H        0.67896973      -0.85901969       0.65843974
H        0.47011981      -0.11315996      -0.94442965
H        2.96426876       0.17826994       0.82029965
H        2.32425904      -2.05540917      -0.87110963
H        3.94041853      -1.60680936      -0.28808987
H        3.80212839      -1.34406944      -2.96914884
H        3.80462849       2.51235912      -2.93589890
H        2.71429882       1.58038940      -3.97862855
H        4.44146817       1.16233958      -3.88309846
