17
Properties=species:S:1:pos:R:3 atomization_energy=-1713.29 smiles=C.C.C.C.C.C.O.H.H.H.H.H.H.H.H.H.H pbc="F F F"
C        0.95400960       2.84114877       0.42741985
C        2.31085899       2.35155901       0.81714967
C        3.39931863       2.48175891       0.04457998
C        4.70248820       1.99991926       0.43985984
C        5.80026795       2.17668916      -0.31035988
C        7.16077702       1.69501932       0.07099997
O        7.67633722       0.91340963      -0.99489963
H        0.60657974       3.58909848       1.14638960
H        0.24397990       2.00864916       0.42674984
H        0.94679961       3.29537859      -0.56825977
H        2.38154908       1.87073928       1.78982926
H        3.31771874       2.97032875      -0.92414966
H        4.77482804       1.47897936       1.39260939
H        5.73829791       2.70971900      -1.25654948
H        7.15179706       1.08381952       0.97916962
H        7.83058681       2.54478899       0.23113991
H        7.01415742       0.22745991      -1.18641955
