19
Properties=species:S:1:pos:R:3 atomization_energy=-1849.77 smiles=C.C.C.C.C.C.O.H.H.H.H.H.H.H.H.H.H.H.H pbc="F F F"
C        0.66667974       0.51956980      -0.62637973
C        2.14906923       0.64622975      -0.76693972
C        2.94470880       1.20728950       0.15428994
C        4.43512809       1.33471943       0.00619000
C        4.90843794       2.78793892       0.01284999
C        4.39612828       3.59160867      -1.17680952
O        4.95339782       4.90070803      -1.14300950
H        0.16985994       1.02735958      -1.45884938
H        0.30070988       0.95820966       0.30728989
H        0.37849985      -0.53580978      -0.64530975
H        2.57720901       0.25047990      -1.68648939
H        2.51377899       1.59351933       1.07706954
H        4.78173788       0.84097965      -0.90993963
H        4.90649802       0.80511971       0.84288966
H        6.00587755       2.80762883       0.00922000
H        4.61017836       3.28341860       0.94588964
H        3.30601864       3.68566843      -1.16861948
H        4.69457812       3.12421876      -2.12012911
H        4.63756841       5.32902772      -0.32905986
