17
Properties=species:S:1:pos:R:3 atomization_energy=-1715.74 smiles=C.C.C.C.O.C.C.H.H.H.H.H.H.H.H.H.H pbc="F F F"
C        1.04536960      -0.05394998       0.07585997
C        2.54937889       0.07655997      -0.17638992
C        2.93768894      -0.67222971      -1.45658937
C        4.43405821      -0.81891971      -1.56493940
O        4.99799788      -1.90644920      -1.64428938
C        2.91694883       1.54046945      -0.26137990
C        3.78466858       2.14208924       0.56329976
H        0.75467970       0.46727983       0.99466963
H        0.76139973      -1.10595957       0.18743992
H        0.46120981       0.36647986      -0.74997972
H        3.07260870      -0.38341984       0.67280976
H        2.58046888      -0.15571994      -2.35453904
H        2.50437889      -1.67876931      -1.45547937
H        5.01334819       0.11922995      -1.61277939
H        2.43443898       2.13470906      -1.03653958
H        4.28710856       1.60341942       1.36077944
H        4.00529845       3.20083865       0.46180982
