17
Properties=species:S:1:pos:R:3 atomization_energy=-1658.86 smiles=C.C.C.O.C.O.C.H.H.H.H.H.H.H.H.H.H pbc="F F F"
C       -1.48184937       0.76148968       0.08874997
C       -1.48450945      -0.76114973      -0.05928998
C       -0.21100992      -1.43883938       0.43590982
O        0.85846967      -1.12176951      -0.44561984
C        1.62278937      -0.00321000      -0.01981999
O        0.87044966       1.11781952       0.42331984
C       -0.21899991       1.43628945      -0.43489983
H       -2.35541917       1.16752953      -0.43333982
H       -1.59754943       1.00137962       1.15256957
H       -1.62473939      -1.00154963      -1.12129955
H       -2.34776899      -1.16623949       0.48177982
H        0.02237999      -1.18517948       1.47645945
H       -0.35167987      -2.52393911       0.38731984
H        2.28102914      -0.31402988       0.79841969
H        2.26360920       0.30730989      -0.85192968
H       -0.35551985       2.52190910      -0.38340984
H       -0.00793000       1.18222959      -1.48070946
