15
Properties=species:S:1:pos:R:3 atomization_energy=-1532.34 smiles=C.C.C.C.O.C.O.H.H.H.H.H.H.H.H pbc="F F F"
C        0.85401968      -0.29198988      -0.04063998
C        2.35557915      -0.30944988       0.00834000
C        3.04938892      -1.45956940      -0.01783999
C        3.03699870       1.03228957       0.10634996
O        2.71606892       1.80360932      -1.05802957
C        3.72009852       1.98667918      -1.94620928
O        4.87126803       1.59196938      -1.85667925
H        0.45094983       0.21618991       0.84130969
H        0.43219982      -1.30251944      -0.06297997
H        0.50438980       0.23266990      -0.93554961
H        2.55353908      -2.42345903      -0.08380997
H        4.13552838      -1.46829944       0.01565999
H        4.11833831       0.93354964       0.26058990
H        2.64979891       1.57457934       0.97577961
H        3.33704857       2.57351892      -2.79534888
