11
Properties=species:S:1:pos:R:3 atomization_energy=-1204.42 smiles=N.C.N.C.C.C.C.H.H.H.H pbc="F F F"
N        0.98478960      -0.04470998      -0.00000000
C        2.32818910      -0.08289996      -0.00000000
N        3.08907886      -1.10935961      -0.00000000
C        3.06051875       1.14755953       0.00000000
C        3.66500855       2.18505924       0.00000000
C        4.43122806       3.51158863       0.00000000
C        5.03069799       4.55108844       0.00000000
H        0.49523980       0.84059970       0.00000000
H        0.43336982      -0.88898964       0.00000000
H        2.51671890      -1.95431921      -0.00000000
H        5.56561805       5.47161810      -0.00000000
