14
Properties=species:S:1:pos:R:3 atomization_energy=-1422.77 smiles=N.C.N.C.C.C.N.H.H.H.H.H.H.H pbc="F F F"
N        2.04164916      -1.16338953       0.82293966
C        2.43523912      -0.32289989      -0.17060993
N        2.20380922      -0.57604980      -1.41202944
C        3.19959869       0.93662965       0.17749993
C        4.68029819       0.76379971      -0.13855995
C        5.29480807      -0.21434991       0.77005967
N        5.73643773      -0.98889963       1.51216937
H        2.53068897      -1.10107961       1.71207931
H        1.83882934      -2.12140918       0.56319977
H        1.66517938      -1.44204942      -1.49412945
H        3.04363880       1.18231955       1.23442949
H        2.78934894       1.75951935      -0.41936985
H        5.18625819       1.72936930      -0.02611999
H        4.82225824       0.44437982      -1.17729955
