15
Properties=species:S:1:pos:R:3 atomization_energy=-1544.56 smiles=C.C.C.C.O.C.C.H.H.H.H.H.H.H.H pbc="F F F"
C        0.97635959      -0.05494998       0.16201993
C        2.45927897       0.13674995      -0.07012997
C        3.18680878       1.14310954       0.83009969
C        4.14105847      -0.02100999       1.12451955
O        3.22636877      -0.96018963       0.49482979
C        5.40650805      -0.01084000       0.41959985
C        6.44633740      -0.00677000      -0.17826994
H        0.60552979      -0.91322965      -0.40767984
H        0.41969984       0.82941965      -0.16404993
H        0.75136969      -0.22777992       1.21951949
H        2.69561899       0.25139990      -1.13568949
H        2.62053908       1.48586939       1.70203930
H        3.61049870       2.00760918       0.31145988
H        4.24212849      -0.23904991       2.19395922
H        7.36539698      -0.01333000      -0.71835971
