12
Properties=species:S:1:pos:R:3 atomization_energy=-1230.14 smiles=C.C.N.C.N.C.H.H.H.H.H.H pbc="F F F"
C        0.40047983       1.48958938       0.50149979
C        0.92207967       0.37009987      -0.34330986
N        0.95424963      -0.99756961       0.19364992
C       -0.37474986      -1.31469947       0.34213986
N       -1.27150944      -0.41837983       0.04208999
C       -0.55266980       0.76226970      -0.40394986
H        0.67930974       2.50028911       0.22914991
H        0.30150989       1.33578944       1.56939936
H        1.54247940       0.56749974      -1.20630957
H        1.54411943      -1.71511927      -0.21115991
H       -0.59503975      -2.34348920       0.66437974
H       -0.97709961       1.32612944      -1.22312946
