17
Properties=species:S:1:pos:R:3 atomization_energy=-1745.43 smiles=C.C.C.C.C.C.C.H.H.H.H.H.H.H.H.H.H pbc="F F F"
C        0.98715962       0.00679000       0.13693995
C        2.51999896       0.00000000       0.00000000
C        3.12649883      -0.74984970       1.19938951
C        2.88481898      -0.75501972      -1.27318946
C        3.56169859      -0.31343986      -2.34418917
C        3.00201878       1.36116943       0.00000000
C        3.39929870       2.48306901       0.00000000
H        0.51126981       0.52708978      -0.70385975
H        0.67079975       0.51757979       1.05479960
H        0.58049979      -1.01111961       0.16934993
H        2.87060895      -0.25993990       2.14701904
H        4.22152842      -0.78566971       1.13847952
H        2.76388897      -1.78331924       1.25436946
H        2.54310896      -1.79045933      -1.30314951
H        3.94465846       0.69893973      -2.41636903
H        3.74880852      -0.97105962      -3.18742876
H        3.75564847       3.48720863      -0.00144000
