17
Properties=species:S:1:pos:R:3 atomization_energy=-1715.58 smiles=C.C.C.C.C.C.O.H.H.H.H.H.H.H.H.H.H pbc="F F F"
C        0.92067967      -0.41819982       0.00212000
C        2.38137901      -0.45937981      -0.29273990
C        2.88076881      -0.24136991      -1.69757935
C        3.11413889       0.81422969      -0.64356974
C        4.48637808       1.05500960      -0.08943997
C        5.18157795       2.26679917      -0.66291976
O        4.68766828       3.05063872      -1.46678948
H        0.75649971      -0.11799995       1.04103960
H        0.47962980      -1.40872945      -0.14130995
H        0.39013986       0.28807988      -0.64412972
H        2.89175885      -1.19915951       0.31440988
H        2.16164921      -0.01946999      -2.47934915
H        3.71928854      -0.83994969      -2.03634920
H        2.52988908       1.72775930      -0.70151975
H        5.13794786       0.19208993      -0.26418990
H        4.41700819       1.20656947       0.99375960
H        6.20661766       2.43185914      -0.28598988
