15
Properties=species:S:1:pos:R:3 atomization_energy=-1522.31 smiles=C.C.C.C.O.C.O.H.H.H.H.H.H.H.H pbc="F F F"
C        0.95532961      -0.00649000       0.10152996
C        2.44464906      -0.23084990       0.09571996
C        2.96201872      -1.45445944       0.30650987
C        3.31924862       0.96891960      -0.17663992
O        2.93153887       1.54902942      -1.41316947
C        3.21210877       1.96175920       0.97929963
O        2.77132896       3.10178879       0.83764969
H        0.67560975       0.69732973       0.89166965
H        0.40278986      -0.93532965       0.27868988
H        0.61996976       0.39586983      -0.85926969
H        2.32540916      -2.31668910       0.48585980
H        4.03253837      -1.63708936       0.28271989
H        4.37523828       0.68949970      -0.26126990
H        2.64302886       2.46015910      -1.20521950
H        3.58381870       1.60578931       1.95496921
