19
Properties=species:S:1:pos:R:3 atomization_energy=-1787.75 smiles=N.C.C.C.N.C.C.H.H.H.H.H.H.H.H.H.H.H.H pbc="F F F"
N        0.95540959      -0.08630997      -0.01305999
C        2.40398915      -0.05753998       0.18491992
C        2.97268880       1.37047944       0.36353986
C        2.36730902       2.06607925       1.60665935
N        2.83220893       3.44938872       1.76754929
C        4.48753830       1.28197955       0.46143981
C        5.33252806       1.85512931      -0.40590984
H        0.66211974      -1.04191960      -0.21294992
H        0.71503973       0.46208981      -0.83919970
H        2.87818898      -0.53586977      -0.68102976
H        2.64537908      -0.67079975       1.06143963
H        2.70201886       1.95886925      -0.52484980
H        2.61683890       1.50163946       2.51338888
H        1.27500953       2.09239916       1.53059939
H        3.85033855       3.45681862       1.82150932
H        2.49193896       3.81340861       2.65587883
H        4.89475806       0.71446971       1.29645945
H        4.97305796       2.43771903      -1.24910949
H        6.40674764       1.75935925      -0.28433989
