17
Properties=species:S:1:pos:R:3 atomization_energy=-1717.33 smiles=C.O.C.C.C.C.C.H.H.H.H.H.H.H.H.H.H pbc="F F F"
C        1.90501923       0.15739993      -0.73199973
O        1.63893933      -0.08441997       0.65459976
C        0.49675981       0.05316998      -0.20202992
C       -0.35950987       1.24667954       0.09499997
C       -1.78313933       0.72537969      -0.12394995
C       -1.69127939      -0.75587973       0.23414991
C       -0.33723987      -1.18314959      -0.33658987
H        2.28828922       1.13245953      -1.00510958
H        2.30335920      -0.66349974      -1.31508944
H       -0.23066991       1.56928934       1.13419960
H       -0.14468995       2.09294912      -0.56467975
H       -2.51914910       1.26131955       0.48197979
H       -2.06274923       0.83475968      -1.17868952
H       -2.51893891      -1.34142943      -0.17557993
H       -1.69198933      -0.87440969       1.32438949
H       -0.43863982      -1.44800948      -1.39511946
H        0.06942997      -2.04521915       0.20193992
