15
Properties=species:S:1:pos:R:3 atomization_energy=-1545.57 smiles=C.C.C.C.C.O.O.H.H.H.H.H.H.H.H pbc="F F F"
C        0.87499964      -0.16211993       0.19362992
C        2.36016906       0.00750000       0.23795991
C        3.06230879       1.13579951       0.00867000
C        2.51646909       2.49664898      -0.29898989
C        4.54623813       1.09921955       0.12537995
O        5.09864777       0.04738998      -0.51385980
O        5.19851796       1.96707922       0.67928975
H        0.61968974      -0.96926965      -0.50156981
H        0.33812988       0.73236971      -0.12947995
H        0.50438980      -0.43948983       1.18594959
H        2.89029886      -0.89901961       0.52929982
H        1.42985942       2.51269901      -0.40380984
H        2.93813885       2.86831879      -1.23903945
H        2.77624892       3.20303873       0.49727980
H        4.45412813      -0.47049983      -1.03008962
