16
Properties=species:S:1:pos:R:3 atomization_energy=-1487.92 smiles=C.C.C.N.C.N.H.H.H.H.H.H.H.H.H.H pbc="F F F"
C        0.83276967       0.29361988      -0.36605986
C        2.24710901       0.04132998       0.08933996
C        2.47963908       0.15513994       1.58280938
N        2.11062921      -1.09313963       2.23979923
C        3.08306884      -0.94443962      -0.70272975
N        3.31478867       0.48882980      -0.82497970
H        0.73475973       0.23800991      -1.45590947
H        0.50235980       1.28976952      -0.05225998
H        0.15113994      -0.44619982       0.06645997
H        1.89592925       0.98482959       1.99817918
H        3.53406857       0.36319987       1.80077930
H        1.11328954      -1.25687953       2.11561919
H        2.25593909      -0.99522961       3.24314880
H        2.63887902      -1.43189939      -1.56150934
H        3.83877850      -1.52301936      -0.18594992
H        4.15811834       0.75474972      -0.31467988
