17
Properties=species:S:1:pos:R:3 atomization_energy=-1721.9 smiles=C.C.C.C.O.C.C.H.H.H.H.H.H.H.H.H.H pbc="F F F"
C        0.98819960       0.02240999       0.10286996
C        2.32735918       0.00819000       0.03427999
C        3.14500884      -1.25967952      -0.00822000
C        4.11901835      -1.21107951      -1.18799953
O        4.93981786      -0.03524999      -1.13623957
C        4.14511848       1.15598954      -1.22054950
C        3.17033886       1.25775953      -0.04447998
H        0.43074983       0.95459962       0.12086995
H        0.41244982      -0.89707963       0.14741995
H        2.51199904      -2.15041920      -0.08448997
H        3.71134843      -1.33194946       0.92829963
H        4.78537801      -2.07922924      -1.15299954
H        3.58875859      -1.24007956      -2.14796907
H        4.83002803       2.00985921      -1.20698947
H        3.61690867       1.17128952      -2.18164924
H        3.73691842       1.34626952       0.89090963
H        2.55515904       2.15837924      -0.14767994
