13
Properties=species:S:1:pos:R:3 atomization_energy=-1367.72 smiles=C.C.O.C.C.O.C.H.H.H.H.H.H pbc="F F F"
C        1.08416963       0.06401998       0.20209992
C        2.32757896      -0.12284995      -0.25007990
O        2.73112881      -1.40214941      -0.63638977
C        4.05444829      -1.25012954      -1.20765954
C        4.53250827       0.13466995      -0.93104966
O        3.95706836       1.19872954      -1.69011930
C        3.36183860       0.89754966      -0.41685985
H        0.73227969       1.04644958       0.49549980
H        0.39235984      -0.76835972       0.27503990
H        4.70860824      -1.99514918      -0.74461970
H        3.99423852      -1.44895938      -2.28276922
H        5.50386805       0.23912990      -0.47895980
H        3.51630874       1.58940936       0.40122985
