19
Properties=species:S:1:pos:R:3 atomization_energy=-1845.61 smiles=C.C.C.C.O.C.C.H.H.H.H.H.H.H.H.H.H.H.H pbc="F F F"
C        0.54937978       1.16872950       0.44968981
C        1.73261933       0.49785979      -0.22980990
C        3.04787872       1.22093948       0.00718000
C        3.70144847       0.95479965       1.34529943
O        3.04466881       1.69539933       2.36252911
C        3.96910834       1.37657942      -1.19037952
C        3.25683878       2.57736899      -0.64606977
H       -0.37387985       0.62653977       0.21915991
H        0.42827982       2.20208907       0.10779996
H        0.66252972       1.18448948       1.53748942
H        1.52113936       0.44045982      -1.30427945
H        1.81602932      -0.53714979       0.12082995
H        4.75797836       1.24502955       1.34837951
H        3.65061861      -0.10823996       1.60077940
H        3.03036870       2.62161906       2.06979924
H        3.65031858       0.99361961      -2.15447921
H        5.04291789       1.31403949      -1.04194957
H        3.85148842       3.32278858      -0.13045995
H        2.45264896       2.99811874      -1.23917950
