19
Properties=species:S:1:pos:R:3 atomization_energy=-1864.42 smiles=C.C.C.C.O.C.C.H.H.H.H.H.H.H.H.H.H.H.H pbc="F F F"
C        1.00194957       0.00226000      -0.05493998
C        2.51960910       0.03663998       0.01137000
C        3.06228885       1.12797951       0.91079964
C        4.46805833       0.63591974       1.17580953
O        4.40966837      -0.79742966       1.18234958
C        3.14160868      -1.20866949       0.64115972
C        3.36672879      -2.33986901      -0.34706988
H        0.65791975      -0.81717970      -0.69234972
H        0.61438977       0.93901961      -0.46730982
H        0.56084981      -0.13508996       0.93836960
H        2.91946886       0.18522993      -1.00053961
H        2.49903906       1.17144950       1.85044932
H        3.04217881       2.12123911       0.45384981
H        5.15148795       0.93677960       0.37365985
H        4.86778788       0.99458964       2.12783909
H        2.53577899      -1.56981937       1.48070946
H        4.05321843      -2.03131923      -1.14461950
H        2.42893916      -2.67245901      -0.79866968
H        3.83676842      -3.19231868       0.15373995
