19
Properties=species:S:1:pos:R:3 atomization_energy=-1861.74 smiles=C.C.C.C.C.C.O.H.H.H.H.H.H.H.H.H.H.H.H pbc="F F F"
C        3.47238871      -0.67308972      -1.22019952
C        2.99376881       0.11873995      -0.00826999
C        3.29870860       1.63326932      -0.05620997
C        2.67343907       2.30763899      -1.28338945
C        2.74472896       2.29517912       1.21664947
C        4.81037798       1.83627928      -0.03721998
O        5.44453790       2.43282911      -0.90284963
H        3.25683878      -1.73732935      -1.07689959
H        4.55201803      -0.56983980      -1.36728946
H        2.96395890      -0.35677987      -2.13567927
H        3.45551860      -0.32103986       0.88509964
H        1.91163927      -0.03360999       0.09521996
H        3.11542881       1.94692918      -2.21787921
H        2.83027884       3.39258870      -1.25947955
H        1.59347933       2.12745908      -1.32602952
H        3.17872863       1.85002931       2.11953916
H        1.65613936       2.18756918       1.27853952
H        2.98020877       3.36559859       1.24066952
H        5.33664813       1.40015940       0.83054966
