15
Properties=species:S:1:pos:R:3 atomization_energy=-1522.68 smiles=C.C.C.O.C.C.O.H.H.H.H.H.H.H.H pbc="F F F"
C        1.05525960      -0.02997999       0.15243993
C        2.54734889      -0.00223000       0.05496998
C        3.23074874       1.08011959      -0.35008987
O        4.59912827       1.17036952      -0.43329983
C        5.24111803       0.04965998       0.19333993
C        4.50968845      -1.24594955      -0.12670995
O        3.16569874      -1.20066959       0.37495986
H        0.66501972      -0.98665962      -0.21028992
H        0.59401976       0.76251970      -0.44679984
H        0.74285969       0.09744996       1.19363951
H        2.76952883       2.01049925      -0.65663974
H        6.27248773       0.00789000      -0.17004993
H        5.26492801       0.23079991       1.27505949
H        5.01282789      -2.09748919       0.34092987
H        4.46939821      -1.42284940      -1.20883957
