15
Properties=species:S:1:pos:R:3 atomization_energy=-1558.57 smiles=C.C.C.C.C.C.O.H.H.H.H.H.H.H.H pbc="F F F"
C        1.02889963       0.00453000      -0.02897999
C        2.35775904      -0.06826997      -0.00205000
C        3.29353859      -1.23366947       0.06397998
C        4.57921833      -0.39206985      -0.05535998
C        4.34706852       0.70787970      -1.14845960
C        3.29218862       1.07893956      -0.04333998
O        4.41539831       0.75687971       0.91426963
H        0.41996983      -0.89372962       0.00659000
H        0.51217981       0.95849964      -0.07603997
H        3.17865873      -1.91935922      -0.77917968
H        3.24537865      -1.76031937       1.02031960
H        5.55941776      -0.86623964       0.00017000
H        3.96504833       0.37061986      -2.11527917
H        5.16403790       1.42196940      -1.28948943
H        2.92730879       2.10339917       0.02759999
