17
Properties=species:S:1:pos:R:3 atomization_energy=-1660.65 smiles=N.C.C.N.C.C.C.H.H.H.H.H.H.H.H.H.H pbc="F F F"
N        2.24564902      -0.40621982      -1.47747937
C        2.40227910       0.13576994      -0.11950995
C        3.42676874       1.29528952      -0.03671998
N        3.64128866       1.70854932       1.37529947
C        3.14269875       3.09175887       1.50293947
C        2.81699890       3.53627848       0.12665995
C        2.97165878       2.53174901      -0.73658970
H        1.57206940      -1.17038958      -1.44681949
H        3.12851874      -0.81702969      -1.77705928
H        2.72182888      -0.68129976       0.53873979
H        1.41999945       0.47084981       0.23568990
H        4.38595832       0.96684960      -0.45658981
H        4.64739823       1.73291935       1.53424936
H        3.90694856       3.73312841       1.95290918
H        2.25098911       3.11031885       2.13680921
H        2.47497902       4.52842808      -0.12557995
H        2.77484898       2.57821909      -1.79735933
