17
Properties=species:S:1:pos:R:3 atomization_energy=-1711.75 smiles=C.C.C.C.O.C.C.H.H.H.H.H.H.H.H.H.H pbc="F F F"
C        1.37069947      -0.25289990      -0.32730988
C        2.78181888       0.05628998       0.05289998
C        3.67386866      -1.05433960       0.56358975
C        3.92528850      -0.44707983      -0.78088967
O        4.91310809       0.60863977      -0.86783968
C        4.27015846       1.84045927      -0.49746981
C        3.11941867       1.46698946       0.43953982
H        0.94491962       0.55007980      -0.93617962
H        0.75640969      -0.36483987       0.57010980
H        1.29939949      -1.17971953      -0.90371966
H        3.28012870      -2.06392913       0.59382976
H        4.38053824      -0.84026964       1.35740943
H        3.72498845      -1.04141961      -1.66411934
H        4.99265804       2.50987896      -0.02141999
H        3.89513844       2.31055897      -1.41356942
H        3.45204855       1.50068943       1.48417940
H        2.28541920       2.16833927       0.33373988
