15
Properties=species:S:1:pos:R:3 atomization_energy=-1472.0 smiles=C.C.C.N.C.C.H.H.H.H.H.H.H.H.H pbc="F F F"
C        0.92171965      -0.01388000       0.92587965
C        0.27588988      -1.04307957      -0.03038999
C        0.75134969      -0.03564999      -1.10344951
N        0.32742987       0.99811963      -0.05668998
C       -1.13739954       0.76837972       0.06612997
C       -1.20549959      -0.75412968       0.09363997
H        2.01832922      -0.01240999       0.97497959
H        0.53156980       0.03415998       1.94874925
H        0.64487978      -2.06617917      -0.04989998
H        0.19555993      -0.00923000      -2.04750918
H        1.82429922      -0.03715998      -1.33491953
H       -1.53265943       1.21512955       0.98461959
H       -1.67789940       1.19034949      -0.78787969
H       -1.77518925      -1.15850957      -0.74891968
H       -1.62164934      -1.13390955       1.03206960
