15
Properties=species:S:1:pos:R:3 atomization_energy=-1558.15 smiles=C.C.C.C.C.C.O.H.H.H.H.H.H.H.H pbc="F F F"
C        0.99999962       0.00000000       0.00000000
C        2.44399905       0.00000000       0.00000000
C        3.63415853       0.00000000       0.00000000
C        5.04015789       0.00000000       0.00000000
C        5.74000771       1.12686950      -0.19443992
C        7.22896702       1.19557956      -0.20189992
O        7.65086690       1.70518928      -1.45615940
H        0.60599976       1.02087959       0.01155999
H        0.60591977      -0.52042981       0.87830965
H        0.60592973      -0.50037979      -0.88987968
H        5.54577774      -0.94727961       0.16348993
H        5.21937818       2.06978915      -0.35006988
H        7.69695672       0.21805991      -0.04718998
H        7.58043721       1.87294932       0.58218978
H        7.22810708       1.15966954      -2.14130904
