19
Properties=species:S:1:pos:R:3 atomization_energy=-1864.23 smiles=C.C.C.C.C.C.O.H.H.H.H.H.H.H.H.H.H.H.H pbc="F F F"
C        0.97052960       0.06949997       0.10715996
C        2.48737908       0.01144999      -0.05981998
C        2.98905879      -1.34814951      -0.55205979
C        2.70160883      -1.56640936      -2.03357924
C        3.18634878      -0.37401986      -2.84767885
C        2.64160900       0.92868961      -2.27957900
O        2.96344893       1.06963964      -0.89737965
H        0.66400976       1.06672963       0.44098981
H        0.63150975      -0.66436972       0.84570966
H        0.43985984      -0.12606995      -0.82947965
H        2.92478876       0.19148992       0.92937961
H        2.56119910      -2.16238904       0.04352998
H        4.07796834      -1.38606947      -0.41238983
H        3.19540873      -2.48120908      -2.37940906
H        1.62558937      -1.70727934      -2.18856917
H        4.28231830      -0.34913985      -2.81273879
H        2.89245881      -0.48412981      -3.89661837
H        3.09157871       1.77534935      -2.80912894
H        1.55836933       1.00473960      -2.42162913
