16
Properties=species:S:1:pos:R:3 atomization_energy=-1615.75 smiles=N.C.C.C.C.C.C.H.H.H.H.H.H.H.H.H pbc="F F F"
N        2.71527887      -0.74895973      -1.25568953
C        2.40665907      -0.00978000      -0.02388999
C        2.97738872       1.43281939       0.00000000
C        2.49647891       2.16112915       1.23678954
C        1.75773928       3.27971866       1.21992952
C        4.42138815       1.43281939       0.00000000
C        5.61154789       1.43281939       0.00000000
H        2.40543905      -1.71436935      -1.15172956
H        3.72859856      -0.78804969      -1.37476945
H        2.79080893      -0.58362977       0.82893966
H        1.31567952       0.02694999       0.07781997
H        2.61602891       1.95796918      -0.89428967
H        2.77854892       1.73691930       2.19815901
H        1.45255939       3.74929855       0.28940989
H        1.44855944       3.75493841       2.14595925
H        6.67716751       1.44140938      -0.00018000
