19
Properties=species:S:1:pos:R:3 atomization_energy=-1845.96 smiles=C.C.C.C.C.C.O.H.H.H.H.H.H.H.H.H.H.H.H pbc="F F F"
C        1.04876958       0.08907997      -0.08510997
C        2.53794904       0.02902999      -0.02631999
C        3.36602856      -0.71470974      -1.05611961
C        2.75266881      -1.43998938      -2.20540925
C        3.43560866       0.79778968      -0.97879963
C        2.89926898       1.67743940      -2.06348919
O        4.63686794       1.32897953      -0.39240983
H        0.68368971       0.86995964       0.58829979
H        0.62723974      -0.86408965       0.24666991
H        0.65608972       0.29987990      -1.08112955
H        2.86172891      -0.05515998       1.00698958
H        4.22645822      -1.26728945      -0.69004972
H        1.84999929      -0.96334964      -2.59476899
H        2.48516891      -2.45656893      -1.90049923
H        3.47401852      -1.51410942      -3.02565893
H        2.00711915       1.27938949      -2.55253909
H        3.66091852       1.82148926      -2.83689901
H        2.64350905       2.66077885      -1.65491934
H        4.98424784       0.76135967       0.31603988
