17
Properties=species:S:1:pos:R:3 atomization_energy=-1693.77 smiles=C.C.C.C.C.C.O.H.H.H.H.H.H.H.H.H.H pbc="F F F"
C        1.01219958       0.03401998      -0.04523998
C        2.49793890      -0.08459997      -0.05071998
C        3.19823862      -0.78421968      -1.17869948
C        3.32383878       0.71735972      -1.03577956
C        4.61639832       1.40445950      -0.62066973
C        5.98491740       0.99220959      -1.10441959
O        5.28924770       2.09394923      -1.69043938
H        0.70618971       0.89298966       0.55993977
H        0.56457977      -0.86561967       0.38846984
H        0.60461975       0.16486993      -1.05310961
H        2.89153882      -0.22590991       0.94977964
H        2.60984907      -1.16080957      -2.00785923
H        4.05366833      -1.40268939      -0.93295962
H        2.75230899       1.29826955      -1.76179929
H        4.57594811       1.93420929       0.32751989
H        6.08008767       0.09007996      -1.69456929
H        6.83815738       1.21464950      -0.47623983
