15
Properties=species:S:1:pos:R:3 atomization_energy=-1545.29 smiles=C.C.C.C.C.O.O.H.H.H.H.H.H.H.H pbc="F F F"
C        2.19227919      -0.50023981      -1.44623938
C        2.48055907       0.08730997      -0.07442997
C        3.30075880       1.36277942      -0.20254993
C        2.58623894       2.62958894      -0.68990974
C        2.91508889       3.13618885       0.72155971
O        2.75349898       4.14830845       1.36245947
O        3.50384862       1.97500924       1.10572957
H        1.62017938      -1.42807947      -1.35021951
H        3.12176888      -0.72434974      -1.97955928
H        1.61297937       0.19575993      -2.06109924
H        3.03366868      -0.64865976       0.52057979
H        1.53632945       0.28158989       0.44755982
H        4.26989856       1.19406949      -0.68941971
H        1.51587940       2.54647910      -0.88746966
H        3.09080885       3.17841876      -1.48706947
