18
Properties=species:S:1:pos:R:3 atomization_energy=-1771.89 smiles=N.C.C.C.C.C.C.H.H.H.H.H.H.H.H.H.H.H pbc="F F F"
N        1.48843938      -0.04056998      -0.94568961
C        2.61180893      -0.04980998      -0.02113999
C        3.12152866       1.34133947       0.15491994
C        4.38041813       1.73053936      -0.10853996
C        4.90499816       3.08741877       0.06777997
C        5.72276793       3.69135850      -1.04427960
C        4.34139813       4.20727827      -0.76665970
H        1.16641953      -0.99649960      -1.08509960
H        1.81787928       0.28104989      -1.85527932
H        3.39048855      -0.72206974      -0.39479985
H        2.27872914      -0.43503984       0.94836962
H        2.40810897       2.07252921       0.52947980
H        5.08996808       0.98945962      -0.47225981
H        5.20228778       3.32583876       1.08411954
H        5.87397744       3.12581880      -1.95668923
H        6.56312741       4.31886849      -0.77026968
H        4.24478857       5.18229810      -0.30193987
H        3.56171852       3.98494844      -1.48691946
