13
Properties=species:S:1:pos:R:3 atomization_energy=-1416.3 smiles=N.C.N.C.C.C.C.H.H.H.H.H.H pbc="F F F"
N        2.75634881      -1.12667950       0.14784994
C        2.18978919       0.03308999       0.06065998
N        2.94463890       1.20958950       0.03475999
C        2.42204901       2.48450907      -0.05634998
C        3.45965860       3.39139871      -0.05486998
C        4.66109830       2.65361895       0.04012998
C        4.31875847       1.32162950       0.09353996
H        2.04097923      -1.86220922       0.15258994
H        1.09228953       0.12808994       0.00408000
H        1.35287946       2.63879903      -0.11468996
H        3.36085855       4.46752843      -0.11567995
H        5.66890783       3.04739878       0.06698998
H        4.92946824       0.43021984       0.16877993
