15
Properties=species:S:1:pos:R:3 atomization_energy=-1605.92 smiles=C.C.C.C.C.C.C.H.H.H.H.H.H.H.H pbc="F F F"
C        2.51905902      -1.13712955      -0.13530994
C        2.04049917       0.11232996      -0.17024994
C        2.81166890       1.34418942      -0.07027997
C        2.16571906       2.52449903      -0.12415995
C        4.31324806       1.30548950       0.13623995
C        5.01657804       1.09851959      -1.14029958
C        5.59787759       0.94248961      -2.18031920
H        1.84198928      -1.98201925      -0.22075992
H        3.57312869      -1.36770947      -0.03331999
H        0.96256962       0.22649992      -0.28711988
H        1.09128954       2.59206905      -0.25986991
H        2.70329894       3.46531864      -0.04782998
H        4.58673830       0.53182982       0.86236964
H        4.65758838       2.25004917       0.57804978
H        6.10832757       0.81089967      -3.10622881
