15
Properties=species:S:1:pos:R:3 atomization_energy=-1511.32 smiles=C.C.C.C.O.C.O.H.H.H.H.H.H.H.H pbc="F F F"
C        0.82757966       0.07602997       0.11991996
C        2.15989904       0.14633994       0.23964991
C        3.02323882       1.36641943       0.12506995
C        2.35523901       2.72715888       0.13734994
O        3.40197871       3.60557849       0.55130980
C        4.19644846       2.80607901       1.42950943
O        3.88081840       1.42094947       1.27232952
H        0.31717988      -0.87729963       0.22611990
H        0.20905991       0.94434960      -0.08324996
H        2.70410892      -0.77664968       0.43802984
H        3.67317854       1.27056951      -0.75362969
H        1.55155942       2.79858881       0.87901965
H        1.96953920       3.02756883      -0.84069968
H        5.25462785       2.96760887       1.20381956
H        4.00316852       3.09998866       2.46564907
