13
Properties=species:S:1:pos:R:3 atomization_energy=-1258.46 smiles=C.C.C.C.O.H.H.H.H.H.H.H.H pbc="F F F"
C        0.91284964       0.01264000       0.05646998
C        2.40114917       0.01337000       0.19236992
C        3.18429884       1.04348961      -0.16357994
C        4.67145802       1.05982963      -0.02848999
O        5.23441814       1.21867948      -1.32026943
H        0.59887979      -0.80896965      -0.59510977
H        0.53493981       0.94836962      -0.36789986
H        0.44920982      -0.12934995       1.03754960
H        2.84505889      -0.88831963       0.60946975
H        2.73930888       1.94646919      -0.57574978
H        5.06371805       0.13835995       0.41337985
H        4.98617818       1.90209926       0.59419974
H        4.84819789       0.52286979      -1.87924927
