18
Properties=species:S:1:pos:R:3 atomization_energy=-1750.53 smiles=C.C.C.C.C.C.H.H.H.H.H.H.H.H.H.H.H.H pbc="F F F"
C        3.06158889      -1.16738949      -0.49670979
C        2.47282891       0.06224997       0.17541993
C        3.44083873       1.20655950       0.16824994
C        3.53331864       2.12223910      -1.02703956
C        2.92876878       2.62360894       0.25922990
C        3.65267864       3.63020854       1.08654962
H        2.34656916      -1.99546926      -0.47148982
H        3.97790840      -1.49037943       0.00863000
H        3.31127874      -0.96121965      -1.54278939
H        2.21731903      -0.17962992       1.21319947
H        1.53925940       0.33641986      -0.32982988
H        4.35953823       0.96490962       0.69287974
H        2.86732889       1.95173925      -1.86568924
H        4.51629801       2.47883893      -1.31442948
H        1.85652924       2.78545901       0.28088989
H        4.73688802       3.48020871       1.06308963
H        3.32259857       3.56758850       2.12789914
H        3.44049859       4.63959817       0.72127969
