19
Properties=species:S:1:pos:R:3 atomization_energy=-1789.61 smiles=N.C.C.N.C.C.C.H.H.H.H.H.H.H.H.H.H.H.H pbc="F F F"
N        0.76612968      -0.08287997       0.05604998
C        2.21649921      -0.22337992       0.26225989
C        2.94071893       1.13903957       0.09139996
N        2.25364918       2.17403917       0.89184963
C        4.43306806       1.06832954       0.46628981
C        5.21221803       0.10457996      -0.38837985
C        5.87968770      -0.95337966       0.08933996
H        0.33855988      -1.00752963       0.09439996
H        0.60174974       0.26146989      -0.89028965
H        2.60653899      -0.95633963      -0.45146982
H        2.38298914      -0.61418973       1.27230946
H        2.85460887       1.44308940      -0.96012964
H        2.37362916       1.95263919       1.87937922
H        1.24993953       2.01928921       0.73894969
H        4.53841838       0.80806965       1.52968936
H        4.88444831       2.06052922       0.34321987
H        5.23330787       0.30450989      -1.45783942
H        5.90004780      -1.18626954       1.14968959
H        6.43215739      -1.60838933      -0.57728976
