15
Properties=species:S:1:pos:R:3 atomization_energy=-1484.87 smiles=C.C.C.C.C.N.H.H.H.H.H.H.H.H.H pbc="F F F"
C        0.72470969       1.33986951      -0.56269978
C       -0.45798981       0.97029960       0.28413988
C       -1.47966935      -0.00348000      -0.20898993
C       -0.82578968      -1.34985943       0.05287997
C        0.67163976      -1.06576964      -0.02241999
N        0.85413966       0.31357988       0.46995981
H        0.75519969       1.03729961      -1.60129933
H        1.22342948       2.27824921      -0.35186985
H       -0.78350968       1.61968936       1.08480954
H       -2.43091896       0.08964997       0.32425986
H       -1.66797938       0.14322994      -1.27847946
H       -1.08370963      -1.69180929       1.06283957
H       -1.14804956      -2.11592918      -0.65760976
H        1.22691948      -1.76726933       0.60887974
H        1.04561960      -1.18225950      -1.04725956
