19
Properties=species:S:1:pos:R:3 atomization_energy=-1846.85 smiles=C.C.C.C.C.C.O.H.H.H.H.H.H.H.H.H.H.H.H pbc="F F F"
C        1.06198959      -0.06451997       0.01579999
C        2.55233899      -0.04008998      -0.01249000
C        3.35395880      -0.70175972      -1.11558954
C        2.70830898      -1.42104940      -2.25089902
C        3.27980874       0.80779966      -1.03228957
C        4.47855834       1.60166937      -0.63596977
O        5.30477768       1.78517930      -1.77568924
H        0.69105974       0.68779975       0.71900972
H        0.70750972      -1.04459961       0.34987987
H        0.61765973       0.14722994      -0.96157960
H        2.95988879      -0.10468996       0.99139960
H        4.27346854      -1.19414947      -0.81649966
H        1.86091930      -0.87152964      -2.67134901
H        2.35346916      -2.40268914      -1.92185919
H        3.43577873      -1.57547941      -3.05437877
H        2.68849896       1.33733951      -1.77184927
H        5.06717802       1.10865952       0.14445994
H        4.17750848       2.58681905      -0.26760988
H        5.49222801       0.89852966      -2.12801925
