13
Properties=species:S:1:pos:R:3 atomization_energy=-1419.65 smiles=C.C.O.C.O.C.C.H.H.H.H.H.H pbc="F F F"
C        0.95407962       0.04868998      -0.08743996
C        2.45832894      -0.02746999       0.11373995
O        2.77779899      -1.20549959       0.85939964
C        3.41457861      -0.85312964       2.00953925
O        3.81420849      -1.61625942       2.86885878
C        3.55052864       0.60175977       2.05534924
C        2.98840878       1.07456957       0.94669963
H        0.60461975      -0.81873967      -0.65813972
H        0.66803975       0.95801965      -0.62560974
H        0.42045982       0.02676999       0.86999963
H        2.97410892      -0.07311997      -0.85119969
H        4.02638830       1.13122954       2.86084877
H        2.93058884       2.11968904       0.67996972
