19
Properties=species:S:1:pos:R:3 atomization_energy=-1904.48 smiles=C.C.C.C.C.C.C.H.H.H.H.H.H.H.H.H.H.H.H pbc="F F F"
C        0.91037963       0.00984000      -0.30783988
C        2.36081906      -0.23370991       0.00678000
C        2.66100898      -1.57954939       0.60625978
C        3.29780879       0.70205974      -0.24077991
C        4.73924832       0.60645976       0.01378000
C        5.58995792      -0.22306991      -0.91260961
C        5.68968781       1.27342956      -0.94660961
H        0.74046973       1.00050958      -0.74237969
H        0.30745986      -0.06135997       0.60335974
H        0.54789979      -0.73422971      -1.02437961
H        2.08597923      -1.71842936       1.52753937
H        3.71742861      -1.70922935       0.85850967
H        2.38736910      -2.37402911      -0.09572996
H        2.96893891       1.64974933      -0.66685972
H        5.01340825       0.62396978       1.06448956
H        5.11666775      -0.71983970      -1.75195926
H        6.41208747      -0.77929966      -0.47771981
H        6.58234748       1.73213927      -0.53667982
H        5.29215809       1.78440931      -1.81612924
