19
Properties=species:S:1:pos:R:3 atomization_energy=-1847.16 smiles=C.C.C.C.O.C.C.H.H.H.H.H.H.H.H.H.H.H.H pbc="F F F"
C        1.18523953       0.17385993       0.30150989
C        2.64972902       0.28113989      -0.12978995
C        2.82684890      -0.28976990      -1.54613934
C        4.28320853      -0.33955987      -1.99780926
O        4.36512837      -0.93643965      -3.28841879
C        3.09274877       1.72182926      -0.04795998
C        4.08342828       2.15844914       0.74112970
H        1.04199959       0.56982977       1.31377947
H        0.85834968      -0.87205966       0.30564989
H        0.52408978       0.72941970      -0.37394984
H        3.24405870      -0.32801988       0.56374979
H        2.24418903       0.29013988      -2.27474912
H        2.41233905      -1.30600943      -1.58651940
H        4.89516784      -0.92828966      -1.30661944
H        4.71461827       0.66256971      -2.07222919
H        4.02330834      -1.84358931      -3.21362881
H        2.56766887       2.44071900      -0.67549973
H        4.64080835       1.48669943       1.38648948
H        4.35833814       3.20871870       0.75560973
