15
Properties=species:S:1:pos:R:3 atomization_energy=-1541.15 smiles=C.C.C.C.C.O.O.H.H.H.H.H.H.H.H pbc="F F F"
C        0.99753958       0.03833998      -0.12756995
C        2.48233902       0.01668999       0.01663000
C        3.32745873      -0.72193972      -0.98744961
C        3.34440857       0.79109968      -0.95905963
C        4.53230843       1.57352939      -0.52450979
O        5.26320812       1.02973957       0.47492982
O        4.81269791       2.63783891      -1.04989958
H        0.58453974       0.92010965       0.37205985
H        0.56205980      -0.85211969       0.33636987
H        0.68454972       0.06310998      -1.17655958
H        2.76829897      -0.01709999       1.06101963
H        2.83603881      -1.19755948      -1.83135933
H        4.19286838      -1.27407956      -0.64130973
H        2.82485877       1.27875955      -1.78172930
H        4.91113789       0.18026993       0.79100966
