17
Properties=species:S:1:pos:R:3 atomization_energy=-1695.67 smiles=C.C.C.C.C.C.O.H.H.H.H.H.H.H.H.H.H pbc="F F F"
C        0.94968963       0.00528000       0.01535999
C        2.46976914       0.00876000       0.01529999
C        3.02738892       1.43281939       0.00000000
C        4.47138809       1.43281939       0.00000000
C        5.66154783       1.43281939       0.00000000
C        7.10554726       1.43281939       0.00000000
O        7.59449711       2.76710897      -0.04015998
H        0.57354977      -1.02217960       0.02640999
H        0.55570976       0.50147980      -0.87756963
H        0.55574975       0.52053979       0.89745964
H        2.83111885      -0.54519978      -0.85919966
H        2.83115897      -0.52628979       0.90147966
H        2.65573904       1.98120927       0.87368966
H        2.65574888       1.96230928      -0.88526964
H        7.50433713       0.89825966      -0.86741967
H        7.50367703       0.95565959       0.90009966
H        7.10299720       3.22037868      -0.74599970
