15
Properties=species:S:1:pos:R:3 atomization_energy=-1571.23 smiles=C.C.C.C.C.C.O.H.H.H.H.H.H.H.H pbc="F F F"
C        1.00099961      -0.05425998       0.00310000
C        2.51999896       0.00000000       0.00000000
C        3.00201878       1.36116943       0.00000000
C        3.39929870       2.48306901       0.00000000
C        3.96061841       3.81516861       0.00083000
C        5.45862808       3.91232852      -0.00606000
O        3.22000876       4.79119828       0.00395000
H        0.65768975      -1.09368959       0.00245000
H        0.58494978       0.44176983      -0.88073967
H        0.58868977       0.43941984       0.88998963
H        2.89565888      -0.53270976      -0.88083965
H        2.89931895      -0.53408976       0.87841967
H        5.91997743       2.92059879       0.01309999
H        5.78841797       4.46563847       0.87704964
H        5.78255783       4.42970802      -0.91277962
