11
Properties=species:S:1:pos:R:3 atomization_energy=-1100.59 smiles=C.C.C.C.O.H.H.H.H.H.H pbc="F F F"
C        2.15617917      -0.91115966      -1.16471957
C        2.15547920       0.12498996      -0.31597986
C        3.25202884       1.07475957      -0.11302996
C        3.42572863       2.20226924      -1.09942962
O        3.00863894       2.44408913       0.24823989
H        1.29262944      -1.56398938      -1.24457951
H        3.01326871      -1.12708954      -1.79413933
H        1.26770946       0.29270987       0.29194988
H        4.15137831       0.62903974       0.29995989
H        2.68884894       2.34254902      -1.88053932
H        4.43253817       2.49230913      -1.37179951
