14
Properties=species:S:1:pos:R:3 atomization_energy=-1416.53 smiles=N.C.N.C.C.C.N.H.H.H.H.H.H.H pbc="F F F"
N        3.03023874       4.10614844      -1.73858936
C        2.50466907       3.69302843      -0.64258974
N        3.08902890       2.84159893       0.24239991
C        4.28947846       2.08519915      -0.09106996
C        5.53556792       2.96711884      -0.06392997
C        6.73426755       2.15306919      -0.28529988
N        7.67680706       1.49386942      -0.44395981
H        2.37766899       4.73996797      -2.21414925
H        1.49827941       4.02066845      -0.32744986
H        2.47002904       2.39047909       0.90868965
H        4.17116840       1.59932938      -1.06764963
H        4.39548837       1.27759946       0.64416972
H        5.60965793       3.47592867       0.90445963
H        5.48061774       3.75131846      -0.82674967
