19
Properties=species:S:1:pos:R:3 atomization_energy=-1849.04 smiles=C.C.C.O.C.C.C.H.H.H.H.H.H.H.H.H.H.H.H pbc="F F F"
C        2.92184885      -1.20623955      -0.50350980
C        2.36843896       0.03630999       0.17612993
C        3.38065873       1.14615960       0.23001991
O        4.54874831       0.84975963       1.00800962
C        3.61653850       2.01392919      -0.97776961
C        2.91857888       2.58384911       0.23018992
C        3.59315849       3.62407866       1.05817958
H        2.16154903      -1.99293927      -0.53531981
H        3.79283856      -1.59686940       0.03311999
H        3.23164880      -0.98777960      -1.53090938
H        2.05796919      -0.21485992       1.19674949
H        1.46801948       0.36133984      -0.35839987
H        4.33377823       0.80145971       1.95560925
H        3.02477880       1.83417925      -1.86771925
H        4.63657827       2.31676909      -1.18543950
H        1.85429926       2.77589893       0.14934994
H        4.68190806       3.51028862       1.06888959
H        3.23358872       3.57343855       2.09050920
H        3.36382874       4.62013838       0.66683972
