15
Properties=species:S:1:pos:R:3 atomization_energy=-1608.46 smiles=C.C.C.C.C.C.C.H.H.H.H.H.H.H.H pbc="F F F"
C        1.62372931      -0.60352975       1.01969963
C        2.41496910      -0.10729996       0.05896998
C        3.13404884       1.20711955       0.14288994
C        4.58306840       0.98974961       0.06017998
C        5.77029755       0.81988967      -0.00663000
C        7.17213697       0.61337975      -0.08494997
C        8.03198702       1.63744931      -0.07936997
H        1.13085949      -1.56268937       0.89180963
H        1.45519941      -0.07370997       1.95194919
H        2.55006902      -0.67913973      -0.85778964
H        2.88864886       1.73199935       1.07320962
H        2.80277877       1.84580932      -0.68334976
H        7.53526689      -0.40735983      -0.14958993
H        7.69256716       2.66768894      -0.01509000
H        9.10006637       1.46225938      -0.13926995
