13
Properties=species:S:1:pos:R:3 atomization_energy=-1317.08 smiles=C.C.N.C.C.C.H.H.H.H.H.H.H pbc="F F F"
C       -1.35831947       0.09622996      -0.39011983
C       -0.46796983      -0.68235973       0.65234973
N       -0.54968976       0.62621975       1.45217938
C       -0.29805989       1.18028955       0.04214999
C        1.03926962       0.62281978      -0.27206990
C        0.92362961      -0.64376977       0.14299994
H       -1.32389946      -0.24717990      -1.42865945
H       -2.40063895       0.28431989      -0.10633996
H       -0.83607968      -1.58777942       1.13304960
H       -1.47692941       0.83126968       1.81980924
H       -0.48686982       2.24034905      -0.12136996
H        1.88806926       1.12368950      -0.70393974
H        1.65445934      -1.43312938       0.13397995
