15
Properties=species:S:1:pos:R:3 atomization_energy=-1582.39 smiles=C.C.C.C.O.C.C.H.H.H.H.H.H.H.H pbc="F F F"
C        0.82589969      -0.13888995      -0.36537985
C        2.13856922      -0.58355975       0.21500992
C        2.26931921      -1.76481932       0.84180969
C        3.25162864       0.41536983       0.07395997
O        3.00159890       1.59494941      -0.15928994
C        4.65527803      -0.07401997       0.17658993
C        5.67449797       0.79473969       0.19490992
H        0.45645983       0.75162971       0.15391994
H        0.05667998      -0.91402967      -0.28033990
H        0.93842966       0.09708996      -1.42883950
H        1.42377950      -2.44215905       0.92887961
H        3.18709871      -2.09393914       1.31493943
H        4.84498824      -1.13790950       0.20978991
H        5.50791797       1.86799921       0.14642994
H        6.70085738       0.44943982       0.25461990
