19
Properties=species:S:1:pos:R:3 atomization_energy=-1909.99 smiles=C.C.C.C.C.C.C.H.H.H.H.H.H.H.H.H.H.H.H pbc="F F F"
C        0.95461961       0.18582992       0.09821996
C        2.40760910      -0.20218991      -0.03612998
C        2.61435898      -1.64920934      -0.38242985
C        3.36722865       0.71829972       0.18190992
C        4.81542814       0.63426975       0.05196998
C        5.46087787      -0.41468983      -0.80989969
C        5.58018765       1.57308933       0.63734977
H        0.82196970       1.25099945       0.31500987
H        0.48353980      -0.37929987       0.90942967
H        0.42048982      -0.02917999      -0.83317964
H        1.79197925      -2.25972910       0.00695000
H        3.52090873      -2.05970914       0.06626997
H        2.64679894      -1.78295929      -1.46785937
H        3.02555876       1.70793931       0.49552979
H        4.91072810      -0.55291980      -1.74646929
H        5.52896794      -1.37012946      -0.28231988
H        6.48284721      -0.13245995      -1.09005955
H        5.15853809       2.36837916       1.24436945
H        6.66135745       1.56584944       0.53648981
