15
Properties=species:S:1:pos:R:3 atomization_energy=-1507.13 smiles=C.C.C.C.O.C.O.H.H.H.H.H.H.H.H pbc="F F F"
C        1.37184947      -0.26276990      -0.31544987
C        2.78886901       0.05855998      -0.00387000
C        3.72462863      -0.97020964       0.56376979
C        3.91812835      -0.46720981      -0.84059970
O        4.84877825       0.61792973      -1.02910956
C        4.26835833       1.78831931      -0.42801983
O        3.06862868       1.44248948       0.28477989
H        0.92707961       0.51867980      -0.94067964
H        0.78846970      -0.33359987       0.60827976
H        1.27785948      -1.21434947      -0.84935969
H        3.36070867      -1.98262926       0.69061974
H        4.42988818      -0.65813972       1.32450948
H        3.70837849      -1.13224959      -1.66791932
H        4.98682818       2.22759901       0.26900988
H        4.02133839       2.50662893      -1.21487949
