19
Properties=species:S:1:pos:R:3 atomization_energy=-1845.38 smiles=C.C.C.C.C.C.O.H.H.H.H.H.H.H.H.H.H.H.H pbc="F F F"
C        1.10782960       0.09608996       0.16592993
C        2.62148886       0.05638997      -0.04112998
C        2.96033895      -0.77007967      -1.28133951
C        3.15632867       1.47922941      -0.20034992
C        3.15373875       2.37868916       1.04781961
C        4.63821842       2.55908910       0.75363972
O        4.61270823       1.49645935      -0.22768991
H        0.84948964       0.65728974       1.06991960
H        0.70206971      -0.91530962       0.27240988
H        0.60336977       0.57947974      -0.67760973
H        3.08211881      -0.42196984       0.83206970
H        2.53380904      -0.32335989      -2.18657903
H        2.57287901      -1.78918935      -1.18891953
H        4.04409842      -0.83556966      -1.42500948
H        2.76328893       1.98467920      -1.09276959
H        2.94423896       1.87285924       1.99442915
H        2.54858909       3.28491870       0.96767965
H        4.91590796       3.51359870       0.29690990
H        5.31057776       2.33093901       1.58464938
