12
Properties=species:S:1:pos:R:3 atomization_energy=-1253.88 smiles=C.C.C.N.N.C.H.H.H.H.H.H pbc="F F F"
C        0.94455960       0.01079999      -0.00795000
C        2.42354912       0.02951999      -0.00101000
C        3.26798879       1.11890959       0.00331000
N        4.53830836       0.62251976       0.00891000
N        4.58547816      -0.71943969       0.00848000
C        3.30012872      -1.07928954       0.00241000
H        0.53378980       1.02543960       0.00156000
H        0.56423975      -0.51729980       0.87217965
H        0.57259980      -0.49749981      -0.90315962
H        3.08097877       2.18330907       0.00290000
H        5.41359805       1.13357950       0.01315000
H        3.05190870      -2.13327910       0.00070000
