17
Properties=species:S:1:pos:R:3 atomization_energy=-1735.24 smiles=C.C.C.C.C.C.O.H.H.H.H.H.H.H.H.H.H pbc="F F F"
C       -1.25129947      -0.76552969      -0.52924980
C       -1.25390946       0.76429971      -0.52303980
C       -0.00151000       1.08118960       0.29182990
C        1.25853949       0.76718972      -0.51295979
C        1.26119957      -0.76251970      -0.51702981
C        0.00158000      -1.08486960       0.28437988
O       -0.00421000      -0.00486000       1.24725953
H       -1.22814947      -1.19068950      -1.53678946
H       -2.14786914      -1.13418951      -0.01821999
H       -2.15101925       1.12552950      -0.00778000
H       -1.23373949       1.19767959      -1.52716945
H       -0.00456000       2.06227914       0.77133969
H        2.15051913       1.13256954       0.00843000
H        1.24429955       1.19924947      -1.51790940
H        2.15360917      -1.12719956       0.00370000
H        1.24985955      -1.18912960      -1.52407940
H        0.00041000      -2.06915920       0.75756972
