17
Properties=species:S:1:pos:R:3 atomization_energy=-1701.38 smiles=C.C.C.C.C.C.O.H.H.H.H.H.H.H.H.H.H pbc="F F F"
C        0.99999962       0.00000000       0.00000000
C        2.44399905       0.00000000       0.00000000
C        3.63415853       0.00000000       0.00000000
C        5.07815797       0.00000000       0.00000000
C        5.67656760       1.41405945      -0.02362999
C        5.41800779       2.19528925       1.26004956
O        7.09105739       1.32479953      -0.21981992
H        0.60611974       1.02089959       0.01360999
H        0.60594973      -0.52209980       0.87731963
H        0.60589977      -0.49859981      -0.89085966
H        5.44885782      -0.55368978      -0.87190965
H        5.46280770      -0.54627976       0.87024963
H        5.27321810       1.97654922      -0.87339967
H        5.82601785       1.66783934       2.12989912
H        4.34967813       2.36598908       1.42473949
H        5.92032766       3.16797881       1.21994946
H        7.47739723       0.90150962       0.56601976
