17
Properties=species:S:1:pos:R:3 atomization_energy=-1716.33 smiles=C.C.C.C.C.C.O.H.H.H.H.H.H.H.H.H.H pbc="F F F"
C       -1.21321953      -0.00155000       1.00394961
C       -0.61821978      -1.01167959       0.00131000
C        0.87287967      -1.27295946       0.21849991
C        1.66773928      -0.00030000      -0.10187996
C        0.87350969       1.27144951       0.22248991
C       -0.61723979       1.01155961       0.00405000
O       -0.80946965       0.00212000      -1.05597956
H       -0.79817966      -0.00307000       2.01420915
H       -2.30687922      -0.00110000       1.05281955
H       -1.22815956      -1.90487919      -0.15987994
H        1.05112956      -1.58297932       1.25410956
H        1.21712953      -2.08822914      -0.42701984
H        1.88136923       0.00130000      -1.17978955
H        2.63991888      -0.00151000       0.40208983
H        1.21827953       2.08881921      -0.42049982
H        1.05211959       1.57839938       1.25922949
H       -1.22703946       1.90612924      -0.15379994
