17
Properties=species:S:1:pos:R:3 atomization_energy=-1722.95 smiles=C.C.C.C.O.C.C.H.H.H.H.H.H.H.H.H.H pbc="F F F"
C        2.64571897      -0.47191982       1.50879936
C        2.60912892       0.01917999       0.06936997
C        3.05238889       1.43506943      -0.06243998
C        4.12534833       1.90263925      -0.69290971
O        4.30782849       3.26685860      -0.66061976
C        3.09664880       3.76324843      -0.05274998
C        2.32180915       2.58178908       0.52871981
H        2.34592899      -1.52391943       1.55557943
H        1.96041919       0.09935996       2.14383916
H        3.65312855      -0.38828986       1.93061925
H        1.59125932      -0.07905997      -0.32533987
H        3.24580862      -0.63213976      -0.54156981
H        4.89509820       1.35641941      -1.21273947
H        2.51299903       4.27639811      -0.82627964
H        3.35847856       4.49494826       0.71886974
H        1.26848954       2.61633903       0.23514991
H        2.38296895       2.57279902       1.62174939
