17
Properties=species:S:1:pos:R:3 atomization_energy=-1715.03 smiles=C.C.C.C.C.C.O.H.H.H.H.H.H.H.H.H.H pbc="F F F"
C        1.03432960      -0.04125998      -0.01751999
C        2.52546899      -0.04290998       0.00057000
C        3.34660865      -0.73793973      -1.06233957
C        2.72806904      -1.46720936      -2.20634918
C        3.30097858       0.77518969      -1.01151961
C        4.51085825       1.52412937      -0.60070976
O        5.33623783       1.88537929      -1.42881944
H        0.65511976       0.72665971       0.66422973
H        0.65251973      -1.01048960       0.31769988
H        0.62462975       0.16532993      -1.01079959
H        2.89946883      -0.10426996       1.01788959
H        4.25740816      -1.23202957      -0.73720974
H        1.89564929      -0.91812961      -2.65667897
H        2.35772901      -2.44224913      -1.87496923
H        3.47573866      -1.63632934      -2.98787889
H        2.73460896       1.27750950      -1.78997927
H        4.62055826       1.74588930       0.47362981
