16
Properties=species:S:1:pos:R:3 atomization_energy=-1489.58 smiles=C.C.C.N.C.N.H.H.H.H.H.H.H.H.H.H pbc="F F F"
C        1.04281961       0.00929000      -0.06557997
C        2.53278912      -0.02220999      -0.02285999
C        3.35819873      -0.76001973      -1.04586960
N        2.72784900      -1.50851940      -2.13283928
C        3.33083870       0.75188968      -1.03679961
N        4.50307838       1.51052947      -0.59812973
H        0.66508974       0.76502970       0.63120973
H        0.63438973      -0.96151961       0.23507990
H        0.65460973       0.25179990      -1.06091958
H        2.88780885      -0.06262998       1.00148964
H        4.26972849      -1.22865956      -0.67885971
H        1.94803919      -0.99912958      -2.54284906
H        2.34965895      -2.39004911      -1.79088930
H        2.78749885       1.22977953      -1.84955922
H        5.01564794       1.02041959       0.13344994
H        4.22347844       2.40651903      -0.20062992
