13
Properties=species:S:1:pos:R:3 atomization_energy=-1390.01 smiles=C.C.C.C.O.C.O.H.H.H.H.H.H pbc="F F F"
C        0.93276962       0.01652999       0.02673999
C        2.27334919       0.07693997       0.01159999
C        3.17855881      -1.11612953      -0.01326999
C        3.90972849      -1.17435951      -1.33232948
O        3.46604864      -1.74871932      -2.32384900
C        2.91677876       1.41541938       0.03819999
O        4.13557834       1.54249933       0.03951998
H        0.30564989       0.90282963       0.04840998
H        0.41769983      -0.94058962       0.00768000
H        2.61504886      -2.04969916       0.10303996
H        3.91259851      -1.08262953       0.79866968
H        4.86092800      -0.61558973      -1.38047945
H        2.23836901       2.28441921       0.05479998
