19
Properties=species:S:1:pos:R:3 atomization_energy=-1846.22 smiles=C.C.C.C.O.C.C.H.H.H.H.H.H.H.H.H.H.H.H pbc="F F F"
C        0.86428969      -2.32904904      -1.42751942
C        2.04871923      -1.89036926      -0.58142976
C        1.87021922      -0.46591983      -0.06283998
C        3.03751875      -0.03887998       0.82257965
O        2.81811900       1.31645948       1.21888954
C        3.74062845       1.88186923       2.05158925
C        4.83784827       1.33863952       2.59060907
H        1.02492957      -3.34276867      -1.80690931
H        0.72537969      -1.66296934      -2.28453907
H       -0.05801998      -2.32915906      -0.83845967
H        2.96360891      -1.95341927      -1.18271950
H        2.16581923      -2.58321904       0.26023990
H        0.93604961      -0.38246984       0.50659979
H        1.77312934       0.23347990      -0.90262966
H        3.97692834      -0.11262996       0.26177989
H        3.08146880      -0.68671970       1.70624933
H        3.45882868       2.91161883       2.24632905
H        5.13855799       0.31358987       2.41546897
H        5.47070768       1.93292921       3.24195880
