17
Properties=species:S:1:pos:R:3 atomization_energy=-1650.6 smiles=C.C.C.O.C.C.O.H.H.H.H.H.H.H.H.H.H pbc="F F F"
C        0.99555960       0.06563997       0.19627992
C        2.48469907      -0.08352997      -0.08695997
C        2.79589896      -0.05743998      -1.57919940
O        3.23644864       0.96522964       0.58836975
C        4.08233846      -0.01739999       1.23463955
C        3.19093868      -1.17330956       0.76590971
O        3.82423841      -2.28186915       0.08761996
H        0.79621967       0.13094995       1.27120955
H        0.43842982      -0.79194966      -0.19629992
H        0.59473979       0.97205961      -0.26957990
H        3.87536854      -0.06213997      -1.76629924
H        2.38804914       0.84423964      -2.04822921
H        2.36195909      -0.92718963      -2.08292917
H        5.09594782       0.00113000       0.82102970
H        4.12357848       0.13182994       2.31677918
H        2.56417888      -1.56070933       1.57811942
H        4.45224826      -1.88494931      -0.53989982
