13
Properties=species:S:1:pos:R:3 atomization_energy=-1417.01 smiles=C.C.C.C.O.C.C.H.H.H.H.H.H pbc="F F F"
C        1.47943935      -0.51219981       0.77891971
C        2.43460905      -0.18532993      -0.10151996
C        3.15712882       1.13196950      -0.12159995
C        4.65791792       0.94815962       0.03850998
O        5.30118801       0.00201000      -0.39917985
C        5.35892796       2.03159919       0.69713972
C        5.94418760       2.92978895       1.24181951
H        1.00135963      -1.48697939       0.73869969
H        1.15234954       0.17176993       1.55589939
H        2.72602894      -0.91307964      -0.85839964
H        2.78470883       1.78663929       0.67516975
H        2.97957870       1.63375935      -1.07883951
H        6.47495732       3.72033849       1.72107934
