13
Properties=species:S:1:pos:R:3 atomization_energy=-1385.72 smiles=C.C.C.C.O.C.O.H.H.H.H.H.H pbc="F F F"
C        1.10127958       0.01667000      -0.66685972
C        2.04630922      -0.43889982       0.16583994
C        3.41295865       0.16900993       0.31171988
C        4.51104801      -0.83706964       0.02403999
O        4.36740844      -2.03357924      -0.20007992
C        5.92042759      -0.30091988       0.05349998
O        6.14925772       0.86833967       0.31864987
H        0.13392994      -0.47420982      -0.72686971
H        1.26272945       0.87968966      -1.30550944
H        1.82846925      -1.31101947       0.78106971
H        3.53461865       0.52550981       1.34018947
H        3.53288867       1.01648960      -0.37232985
H        6.69603735      -1.04792956      -0.17571992
