19
Properties=species:S:1:pos:R:3 atomization_energy=-1841.38 smiles=C.C.C.C.C.C.O.H.H.H.H.H.H.H.H.H.H.H.H pbc="F F F"
C        2.91426882      -0.89540964      -1.02040962
C        2.45850911      -0.01557999       0.13513995
C        3.06345891       1.39962950       0.09582996
C        2.43301911       2.26029912       1.19546954
C        4.55935834       1.36092946       0.27102989
C        5.49069787       1.52656941      -0.90452965
O        5.21826792       2.60666894      -0.00307000
H        2.39740911      -1.86012925      -0.98344959
H        3.98947854      -1.09361956      -0.97362962
H        2.68918883      -0.42722984      -1.98417921
H        2.71348883      -0.51073979       1.08012955
H        1.36481952       0.05749998       0.09907996
H        2.81567895       1.85839927      -0.87027965
H        2.65274891       1.85727929       2.18985908
H        1.34584951       2.31036921       1.07770957
H        2.82127894       3.28349858       1.16001953
H        4.89199805       0.80179967       1.13521953
H        5.07534801       1.59559942      -1.90247927
H        6.46934749       1.06908956      -0.85302966
