10
Properties=species:S:1:pos:R:3 atomization_energy=-1108.39 smiles=N.C.N.C.C.C.N.H.H.H pbc="F F F"
N        0.98471964      -0.03636999      -0.00000000
C        2.32758906      -0.05929998      -0.00000000
N        3.10410872      -1.07283958      -0.00000000
C        3.05122892       1.17518956      -0.00000000
C        3.66894846       2.20431918      -0.00000000
C        4.45896835       3.51645862      -0.00000000
N        5.04095778       4.51979835       0.00000000
H        0.47698982       0.83858969       0.00000000
H        0.44506982      -0.88928966       0.00000000
H        2.54706905      -1.92886920      -0.00000000
