13
Properties=species:S:1:pos:R:3 atomization_energy=-1254.7 smiles=C.C.O.C.C.H.H.H.H.H.H.H.H pbc="F F F"
C        0.94319960       0.02030999      -0.13369994
C        2.42597907      -0.01504999       0.04211999
O        2.84363877      -0.07006997       1.41106944
C        3.28360860      -0.75551971      -0.94550963
C        3.31530872       0.74924972      -0.89835965
H        0.65512973       0.05887997      -1.18997957
H        0.52318978       0.90123963       0.36331985
H        0.48704982      -0.87187969       0.30840989
H        3.81051840      -0.03393998       1.50456940
H        2.80289888      -1.22569946      -1.79600935
H        4.14437839      -1.29893949      -0.57522979
H        4.19963843       1.23043950      -0.49864981
H        2.85557884       1.29170944      -1.71674933
