15
Properties=species:S:1:pos:R:3 atomization_energy=-1516.27 smiles=C.C.C.O.C.O.C.H.H.H.H.H.H.H.H pbc="F F F"
C        1.04280957       0.00775999       0.05531998
C        2.38514909      -0.00859000       0.00062000
C        3.19829868      -1.26640945      -0.02332999
O        4.08532834      -1.23172955      -1.13546959
C        4.89324811      -0.06291998      -1.10310962
O        4.11162832       1.12054962      -1.19200958
C        3.22618885       1.22836950      -0.08334997
H        0.48646981       0.94015964       0.04704998
H        0.46584980      -0.91126967       0.09153996
H        2.56853891      -2.15590917      -0.12697995
H        3.77501842      -1.37522945       0.90273968
H        5.52583803      -0.04848998      -0.20635993
H        5.55451800      -0.09126997      -1.97418916
H        3.80562848       1.36878945       0.83684967
H        2.61619899       2.12583911      -0.22991990
