17
Properties=species:S:1:pos:R:3 atomization_energy=-1695.85 smiles=C.C.C.C.C.C.O.H.H.H.H.H.H.H.H.H.H pbc="F F F"
C        2.94565882       2.34974904       2.69416884
C        3.55320865       1.49712942       1.85912926
C        3.26712859       1.41837948       0.38513985
C        4.50247833       1.68350936      -0.47936981
C        5.02292820       3.07959878      -0.32308986
C        6.29840770       3.36279873       0.42708983
O        6.26260744       3.31615857      -1.00588960
H        3.18616886       2.35806915       3.75296845
H        2.19497914       3.05341890       2.34699913
H        4.29193818       0.80425970       2.25697920
H        2.46894906       2.11880916       0.10956996
H        2.89233896       0.41158984       0.16503994
H        4.22853844       1.53406945      -1.53064935
H        5.28459774       0.94873960      -0.25063990
H        4.26390822       3.84687858      -0.39568985
H        6.79921711       2.55175888       0.94051965
H        6.41444727       4.33294807       0.89354964
