17
Properties=species:S:1:pos:R:3 atomization_energy=-1725.4 smiles=C.C.C.C.O.C.C.H.H.H.H.H.H.H.H.H.H pbc="F F F"
C        0.94576960      -0.00268000       0.07035997
C        2.46243891      -0.00516000       0.04667998
C        3.16503865       1.08644957       0.90666967
C        4.15136847      -0.02116999       1.34071949
O        5.26161793      -0.01944999       1.82582923
C        3.16353879      -1.12651952       0.88906963
C        3.76199863      -2.27417911       0.10294996
H        0.55198976      -0.87132967      -0.46711982
H        0.55495977       0.89781965      -0.41401983
H        0.55832978      -0.03272999       1.09379960
H        2.81770896       0.02154999      -0.99434961
H        2.57946889       1.48194942       1.74189931
H        3.61530864       1.90537931       0.34230987
H        2.56073910      -1.48576946       1.73374927
H        4.38891816      -1.91850924      -0.72118973
H        2.97153893      -2.90296892      -0.31913987
H        4.38047819      -2.90342892       0.75097971
