13
Properties=species:S:1:pos:R:3 atomization_energy=-1395.16 smiles=C.C.C.C.O.C.O.H.H.H.H.H.H pbc="F F F"
C        1.12435956      -0.06795997       0.15217994
C        2.43895899       0.02365999      -0.06136997
C        3.20251867       1.30743952      -0.07072997
C        4.48662840       0.79245969      -0.61627973
O        5.43951802       1.50736939      -0.91097961
C        4.48973813      -0.69942969      -0.73333974
O        3.17965872      -1.11252952      -0.33661986
H        0.62608974      -1.03292961       0.12835995
H        0.51523980       0.80728970       0.35217987
H        3.35685859       1.69581934       0.93792960
H        2.76836886       2.04826920      -0.74507970
H        4.66630793      -1.00460959      -1.76733935
H        5.22566779      -1.13495950      -0.05320998
