19
Properties=species:S:1:pos:R:3 atomization_energy=-1852.56 smiles=C.C.C.C.C.C.O.H.H.H.H.H.H.H.H.H.H.H.H pbc="F F F"
C        0.82160969      -0.12791995       0.14875994
C        2.30732912       0.01791999       0.26744990
C        3.05395889       1.12099952       0.05052998
C        2.46392893       2.46481916      -0.31086987
C        4.57198802       1.15190960       0.16950994
C        5.26783790      -0.11435995       0.66167974
O        5.10398811       1.46457944      -1.11686962
H        0.59140977      -1.03100962      -0.42627984
H        0.33738985       0.70650973      -0.36175985
H        0.37753985      -0.23675991       1.14267957
H        2.79790878      -0.91144964       0.55108976
H        1.38182942       2.51620894      -0.17200993
H        2.68315887       2.70775889      -1.35550951
H        2.89223878       3.24916866       0.32297987
H        4.85372798       1.96758919       0.84578964
H        5.11253810      -0.95182965      -0.02803999
H        4.92368784      -0.40281985       1.65987929
H        6.35121760       0.04623998       0.70671973
H        4.70521792       0.83475968      -1.74170931
