17
Properties=species:S:1:pos:R:3 atomization_energy=-1662.11 smiles=C.C.O.C.C.C.O.H.H.H.H.H.H.H.H.H.H pbc="F F F"
C        0.96532962       0.03382999       0.07914997
C        2.47816899      -0.00459000      -0.11984995
O        2.93663874      -1.27293953      -0.58396979
C        2.64090903      -1.50954941      -1.95425928
C        3.18404878      -0.38546984      -2.81443900
C        2.66186892       0.94007965      -2.29508904
O        2.95435895       1.08167963      -0.91076961
H        0.65979974       0.99235960       0.51005978
H        0.64412972      -0.77874971       0.73813970
H        0.42025982      -0.08191997      -0.86105966
H        2.93096885       0.12899995       0.86864966
H        3.10962872      -2.45743897      -2.23783911
H        1.56044942      -1.63314934      -2.08762922
H        4.27800849      -0.38372985      -2.73535889
H        2.91700888      -0.52935981      -3.86548851
H        3.14722885       1.76658930      -2.82510883
H        1.58413941       1.04141961      -2.46173895
