13
Properties=species:S:1:pos:R:3 atomization_energy=-1392.18 smiles=C.C.C.C.O.C.O.H.H.H.H.H.H pbc="F F F"
C        0.91351964      -0.09203996      -0.10311996
C        2.40311911       0.02286999      -0.05329998
C        3.12436865       1.15420960       0.05972998
C        2.48273896       2.48392896       0.17178993
O        3.13246873       3.51850856       0.27044990
C        4.60972820       1.05841961       0.08201997
O        5.22164815      -0.00109000      -0.00498000
H        0.62964976      -1.12520954      -0.32815986
H        0.49144982       0.54020981      -0.88963965
H        0.47069980       0.17213993       0.86144964
H        2.93457896      -0.92810963      -0.12157995
H        1.38168951       2.50123913       0.16639994
H        5.14129781       2.01952918       0.18388992
