19
Properties=species:S:1:pos:R:3 atomization_energy=-1846.74 smiles=C.C.O.C.C.C.C.H.H.H.H.H.H.H.H.H.H.H.H pbc="F F F"
C        0.98075962       0.07500997       0.04893998
C        2.48471901      -0.10569996       0.01341000
O        3.15891886       0.92233963       0.79574971
C        4.11692828      -0.06416998       1.26910952
C        3.16986877      -1.21464950       0.86443964
C        2.38185895      -1.77447932       2.04611921
C        3.81672853      -2.32094921       0.04077998
H        0.48144981      -0.77372971      -0.43015982
H        0.69087970       0.98193964      -0.49256979
H        0.59872978       0.16407993       1.07084957
H        2.84024896      -0.06382998      -1.02531961
H        5.05862803       0.01161000       0.71473970
H        4.31722833       0.04566998       2.33880896
H        1.95904929      -0.97858963       2.66798897
H        3.02643889      -2.38318899       2.68967886
H        1.55705935      -2.40707895       1.70162939
H        4.41041830      -1.91660919      -0.78637970
H        3.05568888      -2.98123879      -0.38836985
H        4.48464810      -2.93037891       0.65935974
