15
Properties=species:S:1:pos:R:3 atomization_energy=-1509.54 smiles=C.O.C.C.C.O.C.H.H.H.H.H.H.H.H pbc="F F F"
C        1.89300928       0.17253993      -0.79684968
O        1.69969931      -0.06021998       0.60313977
C        0.51314980       0.07194997      -0.19360993
C       -0.33470987       1.24163948       0.14095995
C       -1.72525933       0.70342971      -0.15972994
O       -1.66303936      -0.71025975       0.10196996
C       -0.34166986      -1.14303952      -0.27628989
H        2.26428924       1.14537952      -1.09348961
H        2.26446915      -0.65221971      -1.39201945
H       -0.24739990       1.48628939       1.20503958
H       -0.11186996       2.13636915      -0.44693981
H       -2.49959898       1.16351949       0.46040982
H       -1.98789920       0.84117968      -1.21501954
H       -0.38771984      -1.52822937      -1.30000950
H       -0.02926999      -1.94427920       0.39899984
