21
Properties=species:S:1:pos:R:3 atomization_energy=-1994.91 smiles=C.C.C.C.C.C.O.H.H.H.H.H.H.H.H.H.H.H.H.H.H pbc="F F F"
C        0.96795961      -0.01867999      -0.08849997
C        2.48380910       0.03826999       0.01427999
C        2.99578872       1.47794947      -0.04191998
C        4.52337843       1.52870943       0.06643997
C        5.05641811       2.96473885       0.02858999
C        6.56808723       3.00426881       0.20806993
O        4.72822801       3.57626870      -1.21628952
H        0.62429977      -1.05708957      -0.04994998
H        0.62186975       0.41893985      -1.03020960
H        0.49830979       0.52553980       0.73690972
H        2.92167878      -0.54443976      -0.80462968
H        2.79858881      -0.43320984       0.95256961
H        2.55149898       2.05769920       0.77626967
H        2.67137904       1.94225929      -0.98071962
H        4.95243795       0.95503962      -0.76475971
H        4.83907814       1.04474956       0.99849964
H        4.58566842       3.55883867       0.81956965
H        7.07368741       2.44681911      -0.58800980
H        6.86458706       2.58304897       1.17327953
H        6.93214724       4.03562842       0.14983994
H        5.13551791       3.04866877      -1.92461919
