19
Properties=species:S:1:pos:R:3 atomization_energy=-1841.48 smiles=C.C.C.C.C.C.O.H.H.H.H.H.H.H.H.H.H.H.H pbc="F F F"
C        0.80132970      -0.19075992      -0.10655995
C        2.33064908      -0.15582994      -0.12527996
C        2.85591898      -1.01397959      -1.27907951
C        2.82058882       1.29938952      -0.21845992
C        4.30985824       1.41460940      -0.10038996
C        5.17506780       1.69352931      -1.30283952
O        4.81092806       2.72919898      -0.37974983
H        0.40890984       0.38848983       0.73598972
H        0.43594984      -1.21772958      -0.00371000
H        0.38349986       0.22664991      -1.02889963
H        2.69263895      -0.59342975       0.81437970
H        2.56302901      -0.59788977      -2.24851904
H        2.46005892      -2.03279915      -1.21422949
H        3.94709850      -1.08596951      -1.25400951
H        2.37389916       1.88021923       0.59770979
H        2.47136892       1.75308932      -1.15414954
H        4.72695827       0.89900965       0.75409972
H        4.72084833       1.71773936      -2.28408916
H        6.20160737       1.34996945      -1.28690947
