13
Properties=species:S:1:pos:R:3 atomization_energy=-1421.47 smiles=C.C.C.C.O.C.C.H.H.H.H.H.H pbc="F F F"
C        1.01301960      -0.30008987       0.13875994
C        2.48395899      -0.03052999       0.13476995
C        3.13901875       1.13798949       0.00000000
C        2.41981916       2.43990901      -0.13675994
O        2.98850871       3.51139862      -0.31482986
C        4.54501836       1.13798949       0.00000000
C        5.73517759       1.13798949       0.00000000
H        0.79521968      -1.13370958      -0.53801976
H        0.40558985       0.54481977      -0.19109992
H        0.69024976      -0.58844974       1.14423961
H        3.08436885      -0.93443961       0.24875990
H        1.32408947       2.40170909      -0.06082998
H        6.80020726       1.15234954      -0.00223000
