21
Properties=species:S:1:pos:R:3 atomization_energy=-1992.09 smiles=C.C.C.C.C.C.O.H.H.H.H.H.H.H.H.H.H.H.H.H.H pbc="F F F"
C        3.63641866      -1.39041941       1.91788926
C        2.97330878      -0.94034965       0.61521975
C        1.45113940      -1.02575961       0.75559970
C        3.37945864       0.48888982       0.21061992
C        4.87373786       0.64262974      -0.07484996
C        5.20795817       2.04963923      -0.55547976
O        6.60178759       2.15227914      -0.81488966
H        4.72094825      -1.47765941       1.80313923
H        3.26458863      -2.37425898       2.22383902
H        3.43383855      -0.68509974       2.73078891
H        3.27666873      -1.63166942      -0.18129993
H        1.08591955      -0.35325985       1.53932942
H        1.13959949      -2.04423922       1.01062958
H        0.95763964      -0.75263973      -0.18304992
H        3.08541880       1.19313951       0.99949963
H        2.81836880       0.77393971      -0.68887972
H        5.19351776      -0.08478997      -0.83083965
H        5.46495806       0.42775983       0.82237968
H        4.93858799       2.80116890       0.19387992
H        4.67485792       2.28288908      -1.48237939
H        7.06861707       1.96338926       0.01697999
