11
Properties=species:S:1:pos:R:3 atomization_energy=-1257.13 smiles=C.C.C.N.C.C.H.H.H.H.H pbc="F F F"
C       -1.39767949      -0.07639997      -0.01784999
C       -0.75905967       1.15897954       0.00491000
C        0.62650974       1.18023959       0.04358998
N        1.39438946       0.06942997       0.06050998
C        0.74614971      -1.11577955       0.03767998
C       -0.63315975      -1.23765946      -0.00124000
H       -2.48241901      -0.13261995      -0.04829998
H       -1.32552952       2.08314920      -0.00715000
H        1.17115957       2.11956919       0.06253997
H        1.38572946      -1.99323916       0.05195998
H       -1.10130961      -2.21637910      -0.01821999
