19
Properties=species:S:1:pos:R:3 atomization_energy=-1849.38 smiles=C.C.O.C.C.C.C.H.H.H.H.H.H.H.H.H.H.H.H pbc="F F F"
C        0.99897964       0.06302998       0.13929994
C        2.49173912      -0.09932996      -0.05448997
O        3.22836875       0.95488960       0.62567977
C        4.16807835      -0.02216999       1.15756951
C        5.50826769       0.09318996       0.45329982
C        3.19746876      -1.17269955       0.79899967
C        3.70910849      -2.39738918       0.06956997
H        0.46236981      -0.79301967      -0.28187988
H        0.64070975       0.96561961      -0.36589984
H        0.73523973       0.14199995       1.19892951
H        2.76178882      -0.11513995      -1.11830955
H        4.28272809       0.10621995       2.24107905
H        5.40062772       0.06274997      -0.63592978
H        6.17357741      -0.72205971       0.75408969
H        5.99713781       1.03756960       0.71417972
H        2.60587889      -1.47945941       1.67287940
H        4.26707850      -2.13584909      -0.83469969
H        2.87468889      -3.04057878      -0.22850991
H        4.36795852      -2.98345880       0.71820970
