17
Properties=species:S:1:pos:R:3 atomization_energy=-1702.71 smiles=C.C.O.C.C.C.C.H.H.H.H.H.H.H.H.H.H pbc="F F F"
C        0.98705963      -0.00419000       0.03323999
C        2.50063909      -0.01081000       0.04570998
O        3.01164875      -1.04441957       0.90513966
C        3.82856842      -0.27703988       1.82948930
C        4.60044796       0.80188968       0.98320963
C        3.10632873       1.22763951       0.73618969
C        2.98569875       0.96797961       2.28462916
H        0.61164977      -0.91638966      -0.44221983
H        0.60251979       0.86090965      -0.51489978
H        0.56657975       0.01279000       1.04333960
H        2.90394897      -0.14508994      -0.96381961
H        4.36437844      -0.86729969       2.57145888
H        5.15010821       0.42958983       0.11399996
H        5.23306816       1.50683938       1.53362939
H        2.90747883       2.22421903       0.34564985
H        3.48047871       1.68851939       2.94564873
H        1.98804921       0.75677973       2.67669893
