17
Properties=species:S:1:pos:R:3 atomization_energy=-1722.42 smiles=C.C.C.C.O.C.C.H.H.H.H.H.H.H.H.H.H pbc="F F F"
C        0.95760961       0.01331999       0.00117000
C        2.48999904       0.02637999      -0.03539998
C        2.98536895       0.16203994      -1.47539940
C        3.08276882      -1.22160955       0.65170975
O        3.49123862      -0.84922968       1.98827921
C        3.54221861       0.52588978       1.93983918
C        3.02483886       1.09506959       0.85752967
H        0.57702979      -0.09814996       1.02314963
H        0.55966978      -0.81799971      -0.59146976
H        0.54374976       0.94298960      -0.40589984
H        4.07955828       0.20522992      -1.52334941
H        2.60070887       1.07603952      -1.94195927
H        2.65881900      -0.68890975      -2.08330918
H        3.97372853      -1.59655941       0.13263995
H        2.36542915      -2.04641923       0.72359968
H        3.96258836       0.99743959       2.81293889
H        2.95282882       2.15792909       0.68222972
