13
Properties=species:S:1:pos:R:3 atomization_energy=-1391.47 smiles=C.C.C.C.O.C.C.H.H.H.H.H.H pbc="F F F"
C        0.99999962       0.00000000       0.00000000
C        2.44399905       0.00000000       0.00000000
C        3.63415853       0.00000000       0.00000000
C        5.07815797       0.00000000       0.00000000
O        5.55205777      -0.66931976      -1.16268957
C        5.56017779       1.36116943       0.00000000
C        5.95745771       2.48306901       0.00000000
H        0.60602978       1.02088962       0.01162000
H        0.60592973      -0.52048980       0.87825963
H        0.60597976      -0.50031980      -0.88993967
H        5.46276783      -0.54393977       0.86825968
H        5.18126808      -0.18219993      -1.91746926
H        6.31469770       3.48807867       0.00037000
