17
Properties=species:S:1:pos:R:3 atomization_energy=-1664.97 smiles=C.C.C.O.C.C.O.H.H.H.H.H.H.H.H.H.H pbc="F F F"
C        1.20288947      -0.07318997       0.20325992
C        2.69067884       0.01013000      -0.10825996
C        2.93340890       0.19116993      -1.60163935
O        3.24892870       1.12777954       0.60134973
C        4.45611802       0.62257975       1.17051953
C        4.13349838      -0.82226966       1.43556942
O        3.33657873      -1.20156953       0.31318987
H        1.04183961      -0.20218991       1.28056952
H        0.73813970      -0.92967963      -0.29733990
H        0.68143974       0.84299968      -0.09325996
H        4.00819849       0.23390991      -1.81501923
H        2.49433914       1.12647953      -1.96608920
H        2.52508898      -0.64695974      -2.17572904
H        5.25503814       0.72901970       0.42840984
H        4.72367797       1.18024955       2.07102923
H        5.01967818      -1.45677938       1.51207941
H        3.52506867      -0.93940965       2.33903909
