19
Properties=species:S:1:pos:R:3 atomization_energy=-1915.63 smiles=C.C.C.C.C.C.C.H.H.H.H.H.H.H.H.H.H.H.H pbc="F F F"
C        0.70586969       0.69163972       0.82318966
C        2.19082904       0.58981977       0.68974970
C        2.99053871       1.63776940       0.43431982
C        4.42565810       1.50830946       0.31086987
C        5.31011802       2.49258897       0.05621998
C        4.98528795       3.94631854      -0.15510993
C        6.78278732       2.17916907      -0.03927998
H        0.39714984       0.34819985       1.81495930
H        0.22091991       0.05985998       0.07320997
H        0.34614988       1.71721930       0.68988974
H        2.61155886      -0.40529983       0.81279967
H        2.54565902       2.62088907       0.31574986
H        4.80868786       0.49570980       0.44206982
H        3.92076849       4.17575831      -0.08955996
H        5.32610774       4.26558824      -1.14657961
H        5.49702785       4.55737804       0.59624974
H        6.99500750       1.11642955       0.11854996
H        7.33964708       2.74410898       0.71479970
H        7.16359708       2.44966894      -1.02955960
