13
Properties=species:S:1:pos:R:3 atomization_energy=-1413.17 smiles=C.C.C.C.O.C.O.H.H.H.H.H.H pbc="F F F"
C        1.05157960      -0.02578999       0.09369996
C        2.38220918       0.05595998       0.00490000
C        3.23986874       1.26201952       0.02700999
C        4.40630833       0.76788969      -0.79214970
O        4.49166846      -0.64017973      -0.55694978
C        3.26340872      -1.11548962      -0.20504992
O        2.95796880      -2.28547900      -0.07349997
H        0.54681981      -0.98816964       0.03877999
H        0.43633982       0.85817968       0.22175990
H        3.55196869       1.47213941       1.05712956
H        2.77872883       2.15668913      -0.39867985
H        4.25934808       0.93378960      -1.86542922
H        5.34302807       1.24670957      -0.49129981
