15
Properties=species:S:1:pos:R:3 atomization_energy=-1605.99 smiles=C.C.C.C.C.C.O.H.H.H.H.H.H.H.H pbc="F F F"
C        0.99610962      -0.00053000       0.16603993
C        2.49835903      -0.01401999      -0.06483997
C        2.96474895      -1.22224946      -0.88360962
C        3.52855866      -0.64126974      -2.14236908
C        3.52093851       0.69066970      -2.19386913
C        2.91684890       1.14457950      -0.93441961
O        2.77272890       2.32669908      -0.66268976
H        0.69812974       0.89295963       0.72521972
H        0.68138971      -0.88039965       0.73619972
H        0.44464981       0.00968000      -0.78120969
H        3.03909885       0.03375998       0.88670963
H        2.15010909      -1.91902930      -1.10622956
H        3.74399858      -1.77494928      -0.34692986
H        3.91501836      -1.26539949      -2.93929881
H        3.86504845       1.34983950      -2.97145894
