21
Properties=species:S:1:pos:R:3 atomization_energy=-2047.12 smiles=C.C.C.C.C.C.C.H.H.H.H.H.H.H.H.H.H.H.H.H.H pbc="F F F"
C        0.96295960      -0.02296999       0.03593999
C        2.47846901      -0.00815000       0.01440000
C        3.17009864       1.04574961       0.91684966
C        4.25931831      -0.01097000       1.23286958
C        5.52564777       0.10108996       0.39531984
C        3.19991864      -1.09868953       0.86217963
C        3.64346855      -2.34661912       0.12357995
H        0.58009978      -0.88660965      -0.51519981
H        0.56381975       0.88089965      -0.43465983
H        0.57374980      -0.07288997       1.05752957
H        2.84529886       0.03819999      -1.02148960
H        2.58468887       1.33903947       1.79691926
H        3.50579864       1.95347920       0.40618983
H        4.53161805      -0.03575999       2.29535903
H        5.30793787       0.15417993      -0.67634971
H        6.17840753      -0.76074972       0.56793975
H        6.08485774       1.00227962       0.66841976
H        2.61528908      -1.39060942       1.74733933
H        4.19011823      -2.10883918      -0.79415971
H        2.77616893      -2.95562894      -0.15377994
H        4.29279813      -2.95820877       0.75812970
