17
Properties=species:S:1:pos:R:3 atomization_energy=-1699.02 smiles=C.C.C.C.C.C.O.H.H.H.H.H.H.H.H.H.H pbc="F F F"
C        2.35115907      -0.63405975      -1.49416944
C        2.40928912       0.15675994      -0.21220991
C        1.58074934      -0.13971995       0.80393968
C        3.45465866       1.19540949      -0.13039995
C        3.48261873       2.30517901      -1.15085952
C        3.07553877       2.60584886       0.25896990
O        4.02908849       3.34298871       1.03968956
H        3.33996880      -1.03743959      -1.73662938
H        2.02222925       0.00104000      -2.32268903
H        1.65743937      -1.47899942      -1.42714938
H        0.83546967      -0.92498961       0.72643973
H        1.63139942       0.40145985       1.74437935
H        4.41293808       0.81809969       0.21287991
H        2.70825901       2.35531899      -1.90768928
H        4.44783802       2.65836884      -1.49351944
H        2.02711918       2.83493890       0.42561984
H        4.91342805       2.94039872       1.02152959
