17
Properties=species:S:1:pos:R:3 atomization_energy=-1710.01 smiles=C.C.C.C.C.C.O.H.H.H.H.H.H.H.H.H.H pbc="F F F"
C        1.18227956       0.04312998      -0.08808996
C        2.68491888      -0.05613998       0.04454998
C        3.27539875      -1.38648948       0.11593995
C        2.61190885      -2.55008895       0.07231997
C        3.41207877       1.07951955       0.09398996
C        4.89041796       1.26196955       0.21282992
O        5.15240795       1.96346925       1.41912941
H        0.83671966       1.08257957      -0.12878995
H        0.68514970      -0.42572983       0.76837972
H        0.84110966      -0.44387983      -1.00835961
H        4.35524809      -1.45502946       0.21416992
H        1.53425946      -2.61665898      -0.02435999
H        3.15370872      -3.48957853       0.13353995
H        2.88130880       2.03012923       0.03278999
H        5.25677771       1.86821924      -0.62127974
H        5.46335778       0.33348989       0.22480991
H        4.73873811       1.44832943       2.13325916
