19
Properties=species:S:1:pos:R:3 atomization_energy=-1776.58 smiles=N.C.C.N.C.C.C.H.H.H.H.H.H.H.H.H.H.H.H pbc="F F F"
N        2.29428915      -0.03299999       3.47533872
C        3.21327883      -0.18824992       2.34496912
C        3.81022848       1.16329958       1.90646925
N        4.69197810       1.00151960       0.74175971
C        5.35535798       2.29503908       0.41870985
C        6.65040728       1.49597942       0.18741993
C        6.02154782       0.47075982       1.14903958
H        1.91257921      -0.94723961       3.71684850
H        1.49837947       0.53441981       3.18416863
H        2.67480897      -0.65104972       1.50954941
H        4.01345834      -0.87495964       2.64320903
H        4.32201808       1.63357931       2.75660896
H        2.98709893       1.83081934       1.62371934
H        5.42711796       3.01761890       1.24193950
H        4.95808816       2.80395893      -0.46425983
H        6.77570741       1.13073951      -0.83856969
H        7.57704689       1.96738921       0.52228981
H        6.19333747      -0.57742980       0.88713967
H        6.30222749       0.62470974       2.19861902
