15
Properties=species:S:1:pos:R:3 atomization_energy=-1614.34 smiles=C.C.C.C.C.C.C.H.H.H.H.H.H.H.H pbc="F F F"
C        0.85833966       0.21772991      -0.16962994
C        2.35922912       0.05544998      -0.19933993
C        2.89702878      -1.28099949      -0.44527982
C        2.18840919      -2.39784918      -0.65106972
C        3.13901875       1.13798949       0.00000000
C        4.54501836       1.13798949       0.00000000
C        5.73517759       1.13798949       0.00000000
H        0.55752976       1.25399954       0.02116999
H        0.41759984      -0.39540983       0.62385976
H        0.41783984      -0.07248997      -1.12957954
H        3.98239838      -1.37792952      -0.46287983
H        1.10438957      -2.42162913      -0.65567974
H        2.69796894      -3.34149869      -0.82469967
H        2.67030890       2.10275913       0.17754992
H        6.80021735       1.13680959      -0.00022000
