15
Properties=species:S:1:pos:R:3 atomization_energy=-1509.03 smiles=C.C.C.O.C.C.O.H.H.H.H.H.H.H.H pbc="F F F"
C        0.91919962       0.00884000       0.15684995
C        2.43456893       0.00371000      -0.03552999
C        3.16043865       1.00172961       0.88461964
O        3.59470856      -0.05828997       1.76535931
C        3.14960884      -1.05851953       0.81856966
C        2.83862899       0.03003999      -1.53460944
O        2.57110890      -0.82898968      -2.37476894
H        0.64407976      -0.01031000       1.21741946
H        0.46258981      -0.86478968      -0.32053987
H        0.47524980       0.90701965      -0.28643988
H        2.52880910       1.72752930       1.40594939
H        4.01922840       1.52353941       0.44949981
H        4.00266840      -1.55827937       0.34787986
H        2.51074900      -1.80898928       1.29364949
H        3.41591875       0.91811964      -1.84409928
