17
Properties=species:S:1:pos:R:3 atomization_energy=-1645.94 smiles=C.C.O.C.C.C.O.H.H.H.H.H.H.H.H.H.H pbc="F F F"
C        1.01282959       0.12827995       0.13014995
C        2.50034891      -0.10011996      -0.04516998
O        3.26725879       0.94844960       0.59972977
C        4.06530837      -0.03134999       1.30273947
C        3.14817888      -1.17200955       0.85128964
C        3.79704845      -2.32130903       0.11263995
O        4.49424830      -3.14625864       1.03840961
H        0.44540984      -0.72889971      -0.24651991
H        0.69090973       1.01484963      -0.42548983
H        0.74825970       0.27467989       1.18270953
H        2.77696882      -0.16690993      -1.10491959
H        5.09034809      -0.05134998       0.92041964
H        4.07776849       0.15495994       2.38026901
H        2.48635891      -1.52148935       1.65477930
H        4.49808827      -1.98530928      -0.65855972
H        3.03520892      -2.94015876      -0.37127986
H        5.32233791      -2.69609892       1.27796950
