19
Properties=species:S:1:pos:R:3 atomization_energy=-1866.95 smiles=C.C.C.C.C.C.O.H.H.H.H.H.H.H.H.H.H.H.H pbc="F F F"
C        0.99897964       0.00887000      -0.03308999
C        2.51883899       0.00510000       0.03859999
C        3.07489885       1.11956956       0.91849965
C        4.49806809       0.65316974       1.18084960
C        4.36861811      -0.85251964       1.40037943
C        3.08451873      -1.27142945       0.67565971
O        3.35315866      -2.25148923      -0.31585988
H        0.63939977      -0.81842968      -0.65311972
H        0.63668973       0.94448965      -0.47092980
H        0.55085976      -0.09358996       0.96051962
H        2.90792874       0.11727996      -0.98257962
H        2.52036913       1.19657955       1.86142926
H        3.04680884       2.09389915       0.42220984
H        5.12455815       0.84673967       0.30155989
H        4.95267817       1.15967951       2.03728926
H        5.25874791      -1.38766950       1.05519961
H        4.25768825      -1.04975960       2.47300907
H        2.38285919      -1.71191934       1.39252940
H        4.01376845      -1.88561925      -0.92877963
