13
Properties=species:S:1:pos:R:3 atomization_energy=-1393.84 smiles=C.C.C.O.C.C.C.H.H.H.H.H.H pbc="F F F"
C        1.89894928      -0.49563981      -1.20691958
C        2.17368919       0.22676991      -0.11303995
C        3.29477880       1.16186949       0.04011998
O        3.70714863       2.05524919      -1.00678960
C        2.99339889       2.64433897       0.08772996
C        3.80625855       3.50154862       0.89512968
C        4.48552823       4.22361823       1.57278943
H        1.04925960      -1.16961959      -1.23571953
H        2.51818898      -0.42143985      -2.09627914
H        1.52323939       0.11487996       0.75228969
H        4.08352846       0.78495971       0.68411975
H        1.98168920       2.97591889      -0.11304996
H        5.09295820       4.86531806       2.16773922
