15
Properties=species:S:1:pos:R:3 atomization_energy=-1543.41 smiles=C.C.C.O.C.C.C.H.H.H.H.H.H.H.H pbc="F F F"
C        1.03805956      -0.00862000      -0.03632999
C        2.52840890      -0.00060000      -0.01268999
C        3.34007857      -0.74751968      -1.03713956
O        2.60588898      -1.44307943      -2.05946918
C        3.30534870       0.76366970      -1.05829956
C        4.47469817       1.48702935      -0.64495976
C        5.44880785       2.09520913      -0.30155989
H        0.64937972       0.75349968       0.64648978
H        0.66030977      -0.98228963       0.29114990
H        0.63430975       0.19864993      -1.03259962
H        2.90201889      -0.01844999       1.00627958
H        4.24605830      -1.23133957      -0.68117971
H        2.05860923      -0.84801968      -2.59839903
H        2.74009893       1.23413956      -1.85600931
H        6.31557733       2.63581900       0.00421000
