13
Properties=species:S:1:pos:R:3 atomization_energy=-1369.47 smiles=C.C.C.O.C.C.O.H.H.H.H.H.H pbc="F F F"
C        1.66213929      -0.38980984      -1.24249955
C        2.14119927       0.25733991      -0.16966994
C        3.23012876       1.30038951      -0.14830993
O        3.72457842       1.59230940      -1.47867946
C        3.54582872       2.95439882      -1.52772937
C        2.99280894       3.44437868      -0.43800984
O        2.71684887       2.48748910       0.50800981
H        0.86877967      -1.12360951      -1.14139950
H        2.04391914      -0.19877993      -2.24118906
H        1.71655933       0.02715999       0.80449967
H        4.07277839       0.92700965       0.44755982
H        3.85647852       3.44859867      -2.42922909
H        2.72176883       4.45584802      -0.19400992
