19
Properties=species:S:1:pos:R:3 atomization_energy=-1851.93 smiles=C.C.C.C.C.C.O.H.H.H.H.H.H.H.H.H.H.H.H pbc="F F F"
C        0.91966965      -0.21156992       0.04237999
C        2.39550906       0.02815999       0.04852998
C        3.00330869       1.23094947       0.01374999
C        2.25861910       2.53824906      -0.05544998
C        4.52102821       1.33055949       0.00095000
C        5.10897821       2.03514924       1.22687949
O        4.88113823       1.28283949       2.41373898
H        0.71950971      -1.28765952       0.07562997
H        0.46091982       0.17986993      -0.87065966
H        0.44476983       0.24063990       0.91819963
H        3.00644870      -0.87312967       0.08172997
H        1.18276958       2.40863911      -0.20378992
H        2.62931895       3.14200887      -0.89055965
H        2.39421914       3.10551875       0.87088967
H        4.82757789       1.86677932      -0.90545961
H        4.95934830       0.32651986      -0.06366997
H        4.69745823       3.03996889       1.36303945
H        6.19255776       2.13622910       1.10697962
H        3.92541845       1.10003963       2.45509910
