15
Properties=species:S:1:pos:R:3 atomization_energy=-1537.92 smiles=C.C.O.C.C.C.O.H.H.H.H.H.H.H.H pbc="F F F"
C        1.04761958       0.01591999       0.10497996
C        2.55125901      -0.00047000      -0.04367998
O        3.13375866       1.04873961       0.75824969
C        4.43882828       0.59684978       1.14021960
C        4.28851808      -0.86556964       1.49230938
C        3.19784877      -1.23371955       0.54273981
O        2.86891883      -2.38759898       0.29621990
H        0.58397976      -0.78598966      -0.47741982
H        0.64020975       0.97560960      -0.22870991
H        0.75300971      -0.10923996       1.15245956
H        2.87228897       0.12827995      -1.08223955
H        5.11926778       0.74240972       0.29225987
H        4.80228824       1.19168950       1.98307917
H        5.20458804      -1.43227940       1.31976943
H        3.92360848      -0.99857963       2.51388900
