15
Properties=species:S:1:pos:R:3 atomization_energy=-1491.75 smiles=C.C.C.O.C.C.O.H.H.H.H.H.H.H.H pbc="F F F"
C        0.80542970      -0.01710999      -0.47898983
C        2.22985914      -0.06744997      -0.00417000
C        3.22333878      -0.83491965      -0.85625969
O        3.13574879       0.59332976      -0.90698962
C        2.51532906       0.20039992       1.47471937
C        1.52264944       0.71474973       2.48633898
O        1.83036930      -0.67881972       2.38810894
H        0.72491969      -0.21587991      -1.55322934
H        0.37306984       0.97066965      -0.29322989
H        0.20186992      -0.76621969       0.04378998
H        2.86346898      -1.39276950      -1.71162928
H        4.08928842      -1.27017953      -0.37236984
H        3.55854849       0.40510985       1.70656928
H        0.54549980       1.04188957       2.15434926
H        1.90346929       1.25252946       3.34736867
