17
Properties=species:S:1:pos:R:3 atomization_energy=-1685.76 smiles=C.C.C.C.C.O.O.H.H.H.H.H.H.H.H.H.H pbc="F F F"
C        4.01633845      -1.09645955       0.05433998
C        3.20865864      -0.06120998       0.82715965
C        3.35180869       1.35494946       0.24808990
C        2.36875917       2.31153902       0.91849965
C        4.75766800       1.90143928       0.43711984
O        5.09456807       2.82389890      -0.49437979
O        5.51711796       1.58564937       1.34001952
H        3.85594837      -2.09216916       0.48026981
H        5.08879776      -0.88393967       0.09604996
H        3.71194848      -1.12572960      -0.99679962
H        3.51621865      -0.08050997       1.87971924
H        2.15375906      -0.36078986       0.79908969
H        3.13584871       1.30687947      -0.82647968
H        2.55048890       2.37540911       1.99734926
H        1.33592948       1.98191920       0.76507973
H        2.46337910       3.32343858       0.50946980
H        4.39381844       3.00393876      -1.14853959
