17
Properties=species:S:1:pos:R:3 atomization_energy=-1693.0 smiles=C.C.C.C.O.C.C.H.H.H.H.H.H.H.H.H.H pbc="F F F"
C        0.98224963       0.00902000       0.00661000
C        2.51999896       0.00000000       0.00000000
C        3.02362893      -0.72402972       1.26057946
C        3.00392892      -0.73728972      -1.27201953
O        4.41781817      -0.93348964      -1.29073948
C        3.00201878       1.36116943       0.00000000
C        3.39929870       2.48306901       0.00000000
H        0.58121975       0.51551979      -0.88039965
H        0.58780976       0.53329978       0.88614965
H        0.57853974      -1.01037958       0.01905999
H        2.64622893      -0.24430990       2.17127918
H        4.11760832      -0.71651971       1.32375942
H        2.69373887      -1.76848935       1.27302948
H        2.72943894      -0.19023993      -2.18229924
H        2.54586896      -1.73089931      -1.33634949
H        4.82888799      -0.05337998      -1.22149953
H        3.75117842       3.48941855       0.00542000
