15
Properties=species:S:1:pos:R:3 atomization_energy=-1471.27 smiles=C.C.N.C.C.C.H.H.H.H.H.H.H.H.H pbc="F F F"
C        0.93554961       0.00982000      -0.18338992
C        2.40169900       0.03723998       0.07439997
N        3.30114865      -0.76556969      -0.74250970
C        3.34788873       0.68739974      -0.90780964
C        4.52533803       1.38664946      -0.39505985
C        5.79209797       1.19061948      -0.78530969
H        0.46607980       0.90733967       0.23163990
H        0.48317982      -0.86306967       0.29812989
H        0.70083972      -0.03087999      -1.25250953
H        2.63441907       0.07269997       1.13245953
H        2.81584877      -1.19424952      -1.53061945
H        2.94559877       1.07743958      -1.83706933
H        4.34088842       2.14185912       0.36629985
H        6.03551739       0.44414982      -1.53491943
H        6.60657734       1.75739927      -0.34812986
