19
Properties=species:S:1:pos:R:3 atomization_energy=-1903.18 smiles=C.C.C.C.C.C.C.H.H.H.H.H.H.H.H.H.H.H.H pbc="F F F"
C        1.26822951       0.49496981       1.55463937
C        2.67454882       0.55137975       1.05308961
C        3.09163876       1.39715943       0.09858996
C        4.49827803       1.45978943      -0.42864984
C        5.17281802       2.77718885      -0.17492994
C        6.14000776       3.34371870      -1.18339953
C        4.80322792       3.99994852      -0.97626964
H        0.85772964      -0.50737981       1.39930942
H        0.61766976       1.21204947       1.04358959
H        1.24464954       0.71568973       2.62595890
H        3.37708875      -0.14545995       1.50501944
H        2.38499896       2.09102913      -0.35254985
H        4.46359813       1.24992957      -1.50507937
H        5.11251791       0.66763974       0.01759999
H        5.40189796       2.91680878       0.87643963
H        6.30078769       2.80963890      -2.11313915
H        7.01947707       3.85656861      -0.81128965
H        4.77736800       4.95201807      -0.45839982
H        4.06163847       3.90270838      -1.76072928
