17
Properties=species:S:1:pos:R:3 atomization_energy=-1707.66 smiles=C.C.C.C.O.C.C.H.H.H.H.H.H.H.H.H.H pbc="F F F"
C       -0.93834961       0.03357998      -1.16213948
C       -0.61207974       1.05650959      -0.03119998
C       -1.19295948      -0.02572999       0.92795962
C       -0.55381980      -1.02545959      -0.07857997
O        0.87310967      -1.20340952       0.12611995
C        1.65931937      -0.03237999      -0.12311995
C        0.89047966       1.25368956       0.21077991
H       -1.99017927       0.00804000      -1.47182942
H       -0.31371989       0.07544997      -2.05760924
H       -1.17277954       1.99525920      -0.05743998
H       -0.79266969      -0.04107998       1.94531919
H       -2.28748908      -0.06222997       0.97831964
H       -1.05903959      -1.99116916      -0.16080994
H        1.93897924      -0.04262998      -1.18245960
H        2.58325891      -0.09464996       0.46017982
H        1.27954947       2.08058918      -0.39371984
H        1.05479960       1.52361940       1.26116954
