10
Properties=species:S:1:pos:R:3 atomization_energy=-1123.59 smiles=N.C.C.N.C.C.N.H.H.H pbc="F F F"
N        1.03625962       0.07822997      -0.21235992
C        2.18857926       0.04902998      -0.08663996
C        3.62036863       0.02391999       0.02248999
N        4.43857847      -0.70578970      -0.95615965
C        4.42377823       0.76088970      -1.02379957
C        5.55677787       1.52386934      -0.57998977
N        6.45187759       2.16112915      -0.20850991
H        4.00568830      -0.00589000       1.03664960
H        3.85355855      -1.10808963      -1.69245930
H        3.90234856       1.17453955      -1.88124925
