15
Properties=species:S:1:pos:R:3 atomization_energy=-1566.1 smiles=C.C.C.C.C.C.O.H.H.H.H.H.H.H.H pbc="F F F"
C        0.98709963      -0.15803994       0.00636000
C        2.50712905      -0.04588999       0.02002999
C        3.09854885      -0.73001968      -1.14637951
C        3.57702847      -1.29718945      -2.09108919
C        2.90876875       1.42112939       0.10775995
C        2.96095893       2.23620906      -1.16153957
O        3.12342872       1.95418926       1.20022952
H        0.54995976       0.35074985       0.87250963
H        0.67051972      -1.20673954       0.03379998
H        0.55540980       0.29454987      -0.89382967
H        2.88723884      -0.53325978       0.92689963
H        4.00237848      -1.80496926      -2.92674887
H        2.03129917       2.12018916      -1.72290937
H        3.81542852       1.92931924      -1.76936936
H        3.07830886       3.29464859      -0.90848967
