17
Properties=species:S:1:pos:R:3 atomization_energy=-1749.12 smiles=C.C.C.C.C.C.C.H.H.H.H.H.H.H.H.H.H pbc="F F F"
C        0.99999962       0.00000000       0.00000000
C        2.44399905       0.00000000       0.00000000
C        3.63415853       0.00000000       0.00000000
C        5.07815797       0.00000000       0.00000000
C        5.46665776       1.44468943       0.08572996
C        5.64468756       2.12593929       1.42111942
C        6.84578737       1.81954934       0.57146980
H        0.60608978       1.02090962       0.01191000
H        0.60594973      -0.52065981       0.87816968
H        0.60590973      -0.50007980      -0.89002962
H        5.47432762      -0.43516982      -0.92307965
H        5.47518808      -0.57720977       0.84180969
H        5.07124813       2.03126914      -0.73870972
H        5.49656760       1.54400941       2.32393908
H        5.32846805       3.15975887       1.50546947
H        7.34674717       2.64847897       0.08328997
H        7.51442685       1.03348959       0.90389964
