13
Properties=species:S:1:pos:R:3 atomization_energy=-1387.37 smiles=C.C.C.C.C.N.H.H.H.H.H.H.H pbc="F F F"
C        0.96933961      -0.01938999      -0.00808999
C        2.45024905       0.06025998      -0.00041000
C        3.29648859       1.15172956       0.00380000
C        4.62448806       0.66477975       0.01030000
C        4.55658825      -0.70919971       0.00991999
N        3.23390868      -1.06807960       0.00331000
H        0.52198979       0.97985961       0.00079000
H        0.60837974      -0.56006979       0.87292964
H        0.61700979      -0.54076979      -0.90389964
H        2.98902876       2.19010914       0.00223000
H        5.53217760       1.25335951       0.01484000
H        5.33372815      -1.46215946       0.01368999
H        2.88886890      -2.01908924       0.00143000
