17
Properties=species:S:1:pos:R:3 atomization_energy=-1696.59 smiles=C.C.O.C.C.C.C.H.H.H.H.H.H.H.H.H.H pbc="F F F"
C        1.01659961      -0.05419998      -0.07619997
C        2.49809913       0.06367997      -0.08944996
O        3.11319870      -0.31002989      -1.32335948
C        3.19468883       1.08215956      -0.96250963
C        4.59145841       1.60602940      -0.65722975
C        5.85627792       0.93198966      -1.13539956
C        5.45022797       2.24996918      -1.72106937
H        0.59298975       0.61892978       0.67525977
H        0.72202974      -1.07721955       0.17716993
H        0.57496976       0.19662992      -1.04608957
H        2.96578880      -0.24999991       0.83353966
H        2.55476894       1.76584933      -1.51402943
H        4.66187801       2.07287920       0.32657989
H        5.76475787       0.05072998      -1.76017932
H        6.70434712       0.91020962      -0.46156982
H        6.02394749       3.12763886      -1.44738937
H        5.08557802       2.25597921      -2.74184885
