15
Properties=species:S:1:pos:R:3 atomization_energy=-1536.8 smiles=C.C.C.C.O.C.O.H.H.H.H.H.H.H.H pbc="F F F"
C        0.76574973       0.07428997       0.32672987
C        2.06309922      -0.68162974       0.27494989
C        1.94381920      -2.17488903       0.38684984
C        3.23378882      -0.03934998       0.13759994
O        4.45965822      -0.70578970       0.08957996
C        5.56709772       0.08441997      -0.03752998
O        5.62273777       1.30213943      -0.11803996
H        0.91299965       1.15470959       0.22427991
H        0.26034990      -0.10463996       1.28135944
H        0.10449996      -0.24953991      -0.48364982
H        1.31019952      -2.56456898      -0.41628983
H        1.49225942      -2.44636895       1.34702941
H        2.91022874      -2.68281898       0.31959987
H        3.30742867       1.03928962       0.05724998
H        6.45182763      -0.57158979      -0.05796998
