17
Properties=species:S:1:pos:R:3 atomization_energy=-1724.6 smiles=C.C.C.C.C.C.O.H.H.H.H.H.H.H.H.H.H pbc="F F F"
C        1.60344932      -0.24046990      -0.89357967
C        2.42145906       0.28420988       0.27933988
C        2.94576884       1.69079933       0.05340998
C        1.89193926       2.76624903       0.03986998
C        4.27131818       1.88794928      -0.08281997
C        4.94796816       3.18498871      -0.30192987
O        6.16793780       3.25161880      -0.40239985
H        1.31065952      -1.27934950      -0.71111969
H        2.17862908      -0.20855992      -1.82399933
H        0.68735974       0.34150985      -1.03544958
H        3.25067861      -0.41188983       0.45921983
H        1.81117926       0.26771990       1.19026950
H        1.26648956       2.67573907      -0.85443969
H        2.29967920       3.77922857       0.05336998
H        1.24896945       2.67459903       0.92125965
H        4.96554807       1.05164956      -0.04510998
H        4.31403836       4.07918836      -0.37429986
