11
Properties=species:S:1:pos:R:3 atomization_energy=-1243.93 smiles=N.C.C.C.C.C.N.H.H.H.H pbc="F F F"
N        1.04994960      -0.28101990      -0.00000000
C        2.39446895      -0.03691999      -0.00000000
C        3.05351883       1.13798949       0.00000000
C        2.35051915       2.35561902       0.00000000
C        1.75543929       3.38632861       0.00000000
C        4.45951843       1.13798949       0.00000000
N        5.61052796       1.13798949       0.00000000
H        0.69759972      -1.23238951       0.00000000
H        0.38962983       0.49039980       0.00000000
H        2.96301871      -0.96816961      -0.00000000
H        1.22804954       4.31226851      -0.00000000
