17
Properties=species:S:1:pos:R:3 atomization_energy=-1637.38 smiles=C.C.C.C.C.N.H.H.H.H.H.H.H.H.H.H.H pbc="F F F"
C        1.02617962      -0.01594999      -0.02426999
C        2.54233910      -0.00752000       0.06357998
C        3.08411879       1.14486956       0.89238968
C        4.48346820       0.66914975       1.23030955
C        4.34839831      -0.84360969       1.33654946
N        3.04059871      -1.18795953       0.77356972
H        0.67415973      -0.86875968      -0.61463977
H        0.66295975       0.89949968      -0.50270982
H        0.56396976      -0.08072997       0.96723964
H        2.97223889       0.02453999      -0.94585962
H        2.50329891       1.28669953       1.81229923
H        3.09248887       2.09119920       0.34315988
H        5.16881806       0.92466965       0.41284983
H        4.86347807       1.12430961       2.14945908
H        5.16052797      -1.34517944       0.80032971
H        4.38478851      -1.16512948       2.38229901
H        3.11373869      -1.98508924       0.14369994
