19
Properties=species:S:1:pos:R:3 atomization_energy=-1904.01 smiles=C.C.C.C.C.C.C.H.H.H.H.H.H.H.H.H.H.H.H pbc="F F F"
C        1.07166952       0.03413999       0.27166989
C        2.43116901       0.22868992      -0.41213983
C        2.65651900      -0.60359977      -1.65803929
C        1.79195931      -1.43147939      -2.26078915
C        2.69983897       1.70374935      -0.69558971
C        1.75232930       2.42974915      -1.61559932
C        3.74986857       2.34145920      -0.14891995
H        0.99199959       0.66200972       1.16695952
H        0.94231960      -1.00684959       0.59031977
H        0.23422991       0.28699990      -0.38838985
H        3.18011872      -0.12399995       0.31153987
H        3.65128855      -0.51057981      -2.09435915
H        0.78370972      -1.59145942      -1.89495929
H        2.08522917      -1.97684924      -3.15304887
H        0.74925969       2.47350894      -1.18201953
H        1.69343935       1.93100923      -2.58753895
H        2.07331914       3.46099873      -1.79855929
H        4.44428822       1.83319932       0.51326979
H        3.94653832       3.39104873      -0.34962987
