17
Properties=species:S:1:pos:R:3 atomization_energy=-1698.66 smiles=C.C.C.C.C.C.O.H.H.H.H.H.H.H.H.H.H pbc="F F F"
C        0.94764965       0.02096999      -0.31077988
C        2.39004911      -0.20990993       0.04803998
C        2.71951905      -1.61168932       0.47933981
C        3.29575860       0.78540968      -0.02260999
C        4.72749826       0.72020974       0.29036988
C        5.67206752       0.17094993      -0.74925969
O        5.68576759       1.55420940      -0.38265985
H        0.75658973       1.05445958      -0.61827977
H        0.30407989      -0.19488993       0.54828977
H        0.65395973      -0.63225974      -1.13889952
H        2.12398927      -1.88628932       1.35625944
H        3.77297857      -1.73930926       0.74458973
H        2.49386904      -2.31704918      -0.32722986
H        2.95680884       1.76924925      -0.34504987
H        4.94269797       0.50177979       1.33162951
H        5.29028781      -0.08035997      -1.73087938
H        6.49694748      -0.44481982      -0.41443983
