17
Properties=species:S:1:pos:R:3 atomization_energy=-1722.49 smiles=C.C.C.C.C.O.C.H.H.H.H.H.H.H.H.H.H pbc="F F F"
C        0.98597959      -0.03973999       0.07996996
C        2.47636911       0.04535998      -0.02903999
C        3.12697877       1.21878949       0.06725998
C        4.62249818       1.28502948      -0.03220999
C        5.24910785      -0.09905996       0.13492994
O        4.56846801      -1.04959956      -0.68527971
C        3.21644862      -1.25172945      -0.25539990
H        0.67335971      -1.03142962       0.43229984
H        0.52191980       0.13471994      -0.89617963
H        0.59249978       0.69293973       0.79226968
H        2.58635905       2.15137907       0.20052992
H        4.87810823       1.69298931      -1.01719959
H        5.02419794       1.96380926       0.72728971
H        6.29795754      -0.07211997      -0.17666993
H        5.22354770      -0.42984983       1.18055954
H        3.22196861      -1.84879933       0.66383976
H        2.72045898      -1.83765928      -1.03653958
