19
Properties=species:S:1:pos:R:3 atomization_energy=-1847.67 smiles=C.C.C.C.C.C.O.H.H.H.H.H.H.H.H.H.H.H.H pbc="F F F"
C        1.10839961       0.00912000      -0.10881996
C        2.59897889       0.06363997      -0.11852995
C        3.37614856      -0.56016978      -1.24724956
C        3.38641870       0.94876962      -1.07821954
C        2.64916884       1.78384926      -2.09749916
C        4.64055804       1.60099931      -0.54322977
O        5.61060770       1.68518938      -1.57722933
H        0.70193970       0.91374964       0.35319986
H        0.77249972      -0.85110967       0.47863981
H        0.68122973      -0.08943997      -1.11083953
H        2.98988871      -0.05805998       0.88725966
H        2.82900886      -0.98395962      -2.08304916
H        4.26688824      -1.12323959      -0.98950958
H        1.83339930       1.23503950      -2.57707906
H        3.32726872       2.10985923      -2.89209874
H        2.22701915       2.67390891      -1.62071937
H        5.07719810       1.03576959       0.28658989
H        4.42616831       2.61316899      -0.18466992
H        5.70380777       0.79004967      -1.94454920
