13
Properties=species:S:1:pos:R:3 atomization_energy=-1458.47 smiles=C.C.C.C.O.C.C.H.H.H.H.H.H pbc="F F F"
C        2.63952903      -1.18300955       0.37834984
C        2.20651925       0.06623997       0.16207994
C        3.02537885       1.22813950       0.07332997
C        2.54778895       2.50126891      -0.14996994
O        3.57008860       3.39627854      -0.18241993
C        4.71323802       2.69265889       0.02160999
C        4.43363833       1.35504951       0.18456992
H        1.93481918      -2.00713921       0.42991982
H        3.68930856      -1.42180942       0.50868982
H        1.13301958       0.20818993       0.04326998
H        1.56230936       2.92000885      -0.29936987
H        5.62499765       3.27339877       0.02332999
H        5.16246790       0.57740974       0.36102985
