17
Properties=species:S:1:pos:R:3 atomization_energy=-1646.83 smiles=C.C.C.O.C.C.O.H.H.H.H.H.H.H.H.H.H pbc="F F F"
C        0.89997967       0.08736996       0.03644999
C        2.40922907      -0.02600999       0.01630000
C        3.18400866       0.90986967       0.95240963
O        3.96985853      -0.19799992       1.46611942
C        3.03038888      -1.14598953       0.87380964
C        3.77318851      -2.25297899       0.14104994
O        4.59697841      -2.95880881       1.06634962
H        0.44422984      -0.74307972      -0.51313980
H        0.57769980       1.02044962      -0.43728982
H        0.50406979       0.07349997       1.05793961
H        2.79604884       0.00121000      -1.00981959
H        2.60940900       1.38607944       1.75323933
H        3.81032839       1.65406937       0.45266982
H        2.36666911      -1.54396941       1.65296932
H        4.41829810      -1.85414925      -0.64835974
H        3.07297887      -2.96212874      -0.30954989
H        5.07230792      -2.27070905       1.57228944
