17
Properties=species:S:1:pos:R:3 atomization_energy=-1615.55 smiles=C.C.C.C.C.N.H.H.H.H.H.H.H.H.H.H.H pbc="F F F"
C        0.96005962      -0.01265999       0.02582999
C        2.47615892      -0.03023999       0.03663998
C        3.16653875       1.02966961       0.93864963
C        4.23327823      -0.04371998       1.25512948
C        3.14625864      -1.09633957       0.94514962
N        3.71513845      -2.15816905       0.12420995
H        0.56918980      -0.88179965      -0.51327978
H        0.58887978       0.88809967      -0.47420982
H        0.54745978      -0.03050999       1.04041962
H        2.86776896       0.00363000      -0.99114961
H        2.58126902       1.33548942       1.81370926
H        3.53248872       1.92310924       0.42642982
H        5.08849800      -0.01273999       0.56706977
H        4.60991795      -0.03993998       2.28179901
H        2.56562903      -1.42684948       1.81205926
H        4.27634815      -1.83837931      -0.66442971
H        3.01556871      -2.78743880      -0.26789990
