15
Properties=species:S:1:pos:R:3 atomization_energy=-1505.37 smiles=C.C.C.O.C.C.O.H.H.H.H.H.H.H.H pbc="F F F"
C       -1.24153955      -0.00116000       0.98636963
C       -0.60216974      -1.00252962       0.00375000
C        0.88823965      -1.21325953       0.27233990
O        1.64688940      -0.00059000       0.11702995
C        0.88841962       1.21170958       0.27617991
C       -0.60115979       1.00276959       0.00782000
O       -0.79896971       0.00116000      -1.06460954
H       -0.86517966      -0.00320000       2.01185919
H       -2.33539896      -0.00134000       0.99063959
H       -1.18240951      -1.91394924      -0.16572994
H        1.05144958      -1.59479940       1.28604952
H        1.30242948      -1.94519920      -0.42853982
H        1.30324943       1.94516917      -0.42258985
H        1.05225957       1.58986935       1.29055944
H       -1.18165958       1.91430919      -0.15969993
