13
Properties=species:S:1:pos:R:3 atomization_energy=-1386.11 smiles=C.C.C.N.C.C.H.H.H.H.H.H.H pbc="F F F"
C        0.94209963       0.02575999      -0.00810000
C        2.42597907       0.00450000      -0.00062000
C        3.27556882       1.09389953       0.00376000
N        4.56730829       0.63735974       0.01009999
C        4.56478800      -0.73143974       0.00975000
C        3.25440883      -1.15247949       0.00313000
H        0.55799979       1.05087957       0.00152000
H        0.54851977      -0.49273980       0.87217965
H        0.55802976      -0.47276980      -0.90395963
H        3.06908868       2.15599925       0.00292000
H        5.39352763       1.22118954       0.01433000
H        5.49240767      -1.28785950       0.01421000
H        2.92525885      -2.18389902       0.00120000
