16
Properties=species:S:1:pos:R:3 atomization_energy=-1618.0 smiles=N.C.C.C.C.C.C.H.H.H.H.H.H.H.H.H pbc="F F F"
N        0.99734964      -0.28282987      -0.00947999
C        2.43333906      -0.02573999      -0.02858999
C        2.80895887       1.43982940       0.01612999
C        1.92445921       2.45345895       0.09284996
C        4.29821820       1.71991937       0.02812999
C        4.92712812       1.31544952      -1.23911957
C        5.44981768       0.97679959      -2.26546914
H        0.84569969      -1.28950949      -0.02981999
H        0.59883979       0.07427997      -0.87673965
H        2.84696879      -0.48748980      -0.93182962
H        2.88248895      -0.53063977       0.83412967
H        0.85354965       2.27814903       0.12609995
H        2.24517918       3.48926866       0.14281995
H        4.75966797       1.18444948       0.86621964
H        4.49399798       2.78566895       0.19989993
H        5.91378774       0.67319973      -3.17616873
