17
Properties=species:S:1:pos:R:3 atomization_energy=-1644.47 smiles=C.C.O.C.C.C.O.H.H.H.H.H.H.H.H.H.H pbc="F F F"
C        0.90986967      -0.21614992      -0.16205994
C        2.39550906      -0.15370994      -0.15521993
O        3.01056877      -0.33110986      -1.43831945
C        3.11872880       0.97253961      -0.84679966
C        4.51069828       1.36059941      -0.45746982
C        4.51934819       2.22540903       0.79850970
O        3.88707848       3.47724862       0.55589976
H        0.50440980       0.41466983       0.63299977
H        0.57541979      -1.24425956       0.01258999
H        0.48927980       0.12089996      -1.11452950
H        2.84502886      -0.62917973       0.70582970
H        2.54695904       1.78324934      -1.27830952
H        4.96015828       1.91128929      -1.29214951
H        5.12388796       0.46795983      -0.28240990
H        5.54622790       2.42043914       1.12197958
H        3.99071850       1.73248938       1.62092931
H        4.40783846       3.94330848      -0.11937995
