13
Properties=species:S:1:pos:R:3 atomization_energy=-1370.6 smiles=C.C.C.O.C.C.O.H.H.H.H.H.H pbc="F F F"
C        0.86924964       0.22670990       0.07676997
C        2.13668910       0.22030992       0.50875981
C        3.10597875       1.23501957       0.03214998
O        2.65504892       2.61554898       0.03963998
C        3.60923855       3.05111890       1.03621956
C        4.13932849       1.62500938       1.09437959
O        5.00874820       1.05472958       1.72155927
H        0.16099994      -0.52177978       0.41929983
H        0.50552981       0.97892964      -0.61846978
H        2.48095902      -0.54326976       1.20133953
H        3.55797872       0.97243962      -0.93023962
H        4.31172852       3.78708844       0.64234978
H        3.12383876       3.39898858       1.94926918
