17
Properties=species:S:1:pos:R:3 atomization_energy=-1620.31 smiles=C.C.C.C.N.C.H.H.H.H.H.H.H.H.H.H.H pbc="F F F"
C        0.97227965      -0.00786999       0.05125998
C        2.48735890       0.00666000       0.01053000
C        3.19516876       1.05244958       0.91181962
C        4.21539829      -0.03118999       1.31543943
N        5.36029813       0.01911999       0.40388983
C        3.21398864      -1.09617959       0.82594966
H        0.58174978      -0.86848968      -0.50012979
H        0.56758977       0.89852966      -0.40877986
H        0.59643975      -0.06385997       1.07739958
H        2.84156890       0.05163998      -1.02975957
H        2.58368888       1.39253950       1.75692930
H        3.58058861       1.93801924       0.39689985
H        4.48339805      -0.06678997       2.37449895
H        5.12531817       0.07296997      -0.58640977
H        5.99001752      -0.77680972       0.49865981
H        3.61429855      -1.93072927       0.24169991
H        2.60932901      -1.51341942       1.64068937
