19
Properties=species:S:1:pos:R:3 atomization_energy=-1846.72 smiles=C.C.C.C.C.C.O.H.H.H.H.H.H.H.H.H.H.H.H pbc="F F F"
C        0.83338964      -0.56859979      -0.19078992
C        2.31024910      -0.63832976      -0.38293984
C        2.92051881      -0.34649986      -1.72894929
C        3.09898867       0.63223975      -0.59307976
C        4.45650812       0.81121969       0.02928999
C        4.36792824       1.34984947       1.45557941
O        3.94450857       0.33375988       2.35824907
H        0.60313977      -0.26815990       0.83608965
H        0.38341984      -1.54982943      -0.36864984
H        0.36341987       0.15042994      -0.86962965
H        2.75491885      -1.43608948       0.20223992
H        2.26712922      -0.06221998      -2.54619901
H        3.76860845      -0.94809962      -2.03792917
H        2.56048904       1.57179941      -0.66939975
H        5.01625808       1.52498944      -0.58556976
H        5.00698794      -0.13661995       0.02483999
H        3.67536852       2.19452923       1.53177942
H        5.35539785       1.68536929       1.78694928
H        3.06267871       0.04475998       2.06711923
