19
Properties=species:S:1:pos:R:3 atomization_energy=-1840.74 smiles=C.C.C.C.C.C.O.H.H.H.H.H.H.H.H.H.H.H.H pbc="F F F"
C        0.85559965       0.05868997       0.02661999
C        2.37102914      -0.06737998      -0.02024999
C        3.04225880       1.30692943      -0.03752998
C        4.56596841       1.22648951      -0.14522995
C        5.19680816       0.60457976       1.06227964
C        5.80027754      -0.77534967       1.01387960
O        6.61133732       0.40460983       0.93483962
H        0.39260984      -0.93260964       0.04643998
H        0.47893980       0.59220979      -0.85174965
H        0.53508982       0.60126974       0.92183964
H        2.65777889      -0.63490972      -0.91338963
H        2.70392901      -0.64196977       0.85161970
H        2.76453898       1.86191929       0.86636965
H        2.66508892       1.88020927      -0.89287964
H        4.95991806       2.24487916      -0.25140990
H        4.84588805       0.68377973      -1.05681957
H        4.83882833       1.00228959       2.00188920
H        5.69402791      -1.36695942       0.11393996
H        5.84352762      -1.34927945       1.93015925
