15
Properties=species:S:1:pos:R:3 atomization_energy=-1519.97 smiles=C.C.C.O.C.C.O.H.H.H.H.H.H.H.H pbc="F F F"
C        2.48991905      -0.58785979      -1.39790949
C        2.48839901       0.02793999      -0.00819000
C        3.49187853       1.16465952       0.07400997
O        3.04703871       2.33666919      -0.65950975
C        3.03325890       3.20347879       0.50076980
C        3.44926861       2.00560920       1.34651945
O        3.65051869       1.80803925       2.52453890
H        1.78007931      -1.41921949      -1.44672940
H        3.48298865      -0.96935961      -1.65648935
H        2.20593914       0.14881994      -2.15618926
H        2.74553894      -0.74483973       0.72537969
H        1.47844946       0.37984985       0.23365991
H        4.51288801       0.88483967      -0.20925992
H        3.77664848       3.99890841       0.43156985
H        2.03672921       3.59249865       0.71413972
