17
Properties=species:S:1:pos:R:3 atomization_energy=-1676.76 smiles=C.C.C.C.O.C.O.H.H.H.H.H.H.H.H.H.H pbc="F F F"
C        0.36807986      -0.89209962       1.15057956
C        1.69727933      -1.23400948       0.47960981
C        1.66539929      -2.66162896      -0.07003997
C        2.01468921      -0.21551991      -0.62375977
O        3.27415879      -0.50286980      -1.25388953
C        4.36990803      -0.01353000      -0.62445974
O        4.39379825       0.63037975       0.41161984
H        0.39751985       0.11493995       1.57981938
H        0.14948995      -1.59458934       1.96180929
H       -0.46037983      -0.93225966       0.43539982
H        2.48808914      -1.19519955       1.23888957
H        0.90971966      -2.76745895      -0.85594963
H        1.42973944      -3.37779856       0.72448972
H        2.63543899      -2.94439893      -0.49144982
H        2.00613922       0.81089967      -0.23621991
H        1.25214945      -0.25841990      -1.41008939
H        5.26551796      -0.29294987      -1.20052954
