17
Properties=species:S:1:pos:R:3 atomization_energy=-1702.77 smiles=C.C.C.C.O.C.C.H.H.H.H.H.H.H.H.H.H pbc="F F F"
C        1.86856923      -3.07921877       0.78836971
C        1.31042952      -1.69052934       0.90014962
C        0.32017988      -1.39342947       1.75965927
C        1.93425925      -0.65227977       0.00184000
O        1.57341937      -0.95368964      -1.34688949
C        2.03843926      -0.12333995      -2.32657897
C        2.84262894       0.94087961      -2.22102906
H        1.76777929      -3.45749865      -0.23385992
H        1.35582946      -3.78382857       1.45381941
H        2.93083890      -3.08342866       1.05783956
H       -0.12105995      -2.14905914       2.40051909
H       -0.08579997      -0.39011983       1.83279925
H        3.02460873      -0.68167970       0.11919996
H        1.57731941       0.35099988       0.26358990
H        1.64906929      -0.45194982      -3.28470876
H        3.24924865       1.28757954      -1.27864953
H        3.11856882       1.49872945      -3.11038874
