19
Properties=species:S:1:pos:R:3 atomization_energy=-1856.83 smiles=C.C.C.C.O.C.C.H.H.H.H.H.H.H.H.H.H.H.H pbc="F F F"
C       -1.53158941       0.75885970       0.11302996
C       -1.53611939      -0.75332973      -0.08226996
C       -0.28718987      -1.46908948       0.42888984
C        0.94267961      -1.15097951      -0.41505984
O        1.67696931      -0.00125000      -0.02011999
C        0.95480962       1.15134955       0.38895983
C       -0.29262989       1.47144941      -0.42702984
H       -2.41897915       1.17197952      -0.38326986
H       -1.64681938       0.98523963       1.18100958
H       -1.67668935      -0.97901960      -1.14693956
H       -2.41247909      -1.16373952       0.43464983
H       -0.11556995      -1.23484949       1.48490939
H       -0.47948982      -2.54649903       0.35942985
H        1.64364935      -1.99023920      -0.34003987
H        0.68973973      -1.06176956      -1.47807942
H        0.72607972       1.06468953       1.45751947
H        1.65633933       1.98826924       0.29639987
H       -0.48127980       2.54940892      -0.35443988
H       -0.14619994       1.23580949      -1.48656935
