15
Properties=species:S:1:pos:R:3 atomization_energy=-1430.71 smiles=C.C.C.C.O.C.C.H.H.H.H.H.H.H.H pbc="F F F"
C       -1.66672933       0.95685962       0.41803984
C       -1.38961939      -0.40754983      -0.14128994
C       -0.41450982      -1.36460946       0.38682984
C        0.79803968      -0.71507972      -0.17992993
O        1.70678931      -0.21351992       0.71853969
C        0.96468964       0.84619968       0.01637999
C       -0.50362982       0.74924972      -0.53712979
H       -2.53648905       1.48822944       0.04682998
H       -1.46226948       1.12584958       1.46886945
H       -2.05372915      -0.82004965      -0.88728962
H       -0.41089984      -1.39645946       1.48124945
H       -0.55645981      -2.37404904      -0.00854000
H        1.14989953      -1.16384954      -1.10216955
H        0.92393966       1.59933935       0.79378966
H       -0.64096978       1.16002949      -1.53731935
