17
Properties=species:S:1:pos:R:3 atomization_energy=-1699.28 smiles=C.C.C.O.C.C.C.H.H.H.H.H.H.H.H.H.H pbc="F F F"
C        0.88423963       0.13310994      -0.08951996
C        2.35766896      -0.02826999       0.07198997
C        3.16596874      -0.84922968      -0.89410963
O        2.46078892      -1.39880943      -2.01731926
C        3.30614859       0.65445972      -0.88433968
C        4.52830797       1.25681947      -0.34418987
C        5.74551762       1.18985959      -0.89866963
H        0.53831978       0.99624960       0.48783981
H        0.36528987      -0.75499972       0.28345988
H        0.59129976       0.28867989      -1.13285960
H        2.62999898      -0.10105996       1.11923951
H        3.96990849      -1.44639948      -0.47332982
H        3.05441889      -1.49790937      -2.78125895
H        2.86966876       1.20136955      -1.71482934
H        4.42053830       1.82096933       0.58103978
H        5.91506757       0.65233976      -1.82581927
H        6.59659764       1.67582941      -0.43257983
