13
Properties=species:S:1:pos:R:3 atomization_energy=-1337.15 smiles=N.N.C.C.C.C.C.H.H.H.H.H.H pbc="F F F"
N        1.06227964      -0.15654994      -0.00740000
N        2.41307914      -0.01510000       0.00785000
C        2.87501894       1.18734952      -0.14793994
C        2.11504917       2.44995912      -0.37135986
C        2.69449889       3.65388857      -0.46443981
C        4.32097848       1.14122955      -0.07506997
C        5.52109773       1.10002954      -0.01481999
H        0.84116965      -1.13862953      -0.19682993
H        0.69168975      -0.00283000       0.93496963
H        1.03996959       2.35066904      -0.46620982
H        3.76658854       3.79732854      -0.37943985
H        2.08951918       4.53929801      -0.63347977
H        6.58318724       1.05031958       0.03845998
