11
Properties=species:S:1:pos:R:3 atomization_energy=-1233.27 smiles=C.C.C.C.O.C.O.H.H.H.H pbc="F F F"
C        0.99999962       0.00000000       0.00000000
C        2.44399905       0.00000000       0.00000000
C        3.63415853       0.00000000       0.00000000
C        5.08022809      -0.00332000      -0.00089000
O        5.69240794      -1.03771961      -0.23656991
C        5.88488774       1.24167947       0.28254988
O        5.35597771       2.31532904       0.52739980
H        0.60599976       1.02087959       0.01194000
H        0.60592973      -0.52073980       0.87811965
H        0.60591977      -0.50006980      -0.89004962
H        6.97489720       1.08998953       0.24761990
