19
Properties=species:S:1:pos:R:3 atomization_energy=-1861.76 smiles=C.C.C.C.C.C.O.H.H.H.H.H.H.H.H.H.H.H.H pbc="F F F"
C        0.56737976      -0.20441992      -0.99201958
C        1.97912918      -0.52007980      -0.52448979
C        2.69768886       0.73310973      -0.02503999
C        4.11044842       0.40699985       0.46058983
C        4.83549806       1.65900938       0.94312965
C        6.22810771       1.36548946       1.44629943
O        6.74387734       0.25208990       1.46807940
H        0.07554998      -1.11328954      -1.35275948
H        0.57775979       0.52368980      -1.80945924
H       -0.03407999       0.20525992      -0.17411994
H        2.54130908      -0.96523960      -1.35355949
H        1.93381919      -1.26804948       0.27549990
H        2.12372912       1.18514957       0.79314969
H        2.74767896       1.47392945      -0.83240966
H        4.68241828      -0.06048997      -0.35065986
H        4.06028849      -0.32762987       1.27404954
H        4.28242832       2.13010906       1.76273935
H        4.92608801       2.38642917       0.12927995
H        6.78594752       2.24523924       1.81017927
