15
Properties=species:S:1:pos:R:3 atomization_energy=-1572.06 smiles=C.C.C.O.C.C.C.H.H.H.H.H.H.H.H pbc="F F F"
C        1.04097961       0.02192999       0.64075978
C        2.40686901      -0.02144999       0.04791998
C        2.69026906       0.70687971      -1.23921949
O        4.07363833       1.13616955      -1.50826946
C        4.75495796      -0.05171998      -1.76039936
C        4.02516853      -1.15669960      -1.59728940
C        2.65885886      -0.82309970      -1.20531954
H        0.90937965       0.94352965       1.21611958
H        0.89756966      -0.82600965       1.31760948
H        0.25827990      -0.01694999      -0.12400995
H        3.17137872      -0.00539000       0.81673969
H        1.88835931       1.22909949      -1.74635927
H        5.78828777       0.06013998      -2.03676920
H        4.38288846      -2.16698904      -1.73439927
H        1.84688931      -1.32177951      -1.71695927
