19
Properties=species:S:1:pos:R:3 atomization_energy=-1786.7 smiles=N.C.C.C.C.C.N.H.H.H.H.H.H.H.H.H.H.H.H pbc="F F F"
N        1.29282954       2.84578889      -1.58677943
C        2.64752894       2.95320882      -1.05441959
C        3.24051874       1.56965939      -0.77889972
C        4.61908818       1.67558931      -0.19151993
C        5.64200780       0.60529979      -0.47061981
C        5.80012765       1.97037921      -1.07758959
N        6.85500705       2.85194880      -0.59190977
H        0.91518963       3.78001862      -1.74048929
H        0.68706975       2.40282893      -0.89722964
H        2.63136889       3.54985870      -0.13512995
H        3.27249870       3.49030852      -1.77739929
H        3.26017863       0.98452963      -1.70589934
H        2.60484887       1.02418961      -0.07089998
H        4.60037832       2.09473916       0.80877965
H        5.37915787      -0.20977991      -1.13713951
H        6.30914742       0.31190988       0.33076988
H        5.61787787       2.04220921      -2.14811921
H        7.03295711       2.71525894       0.40138983
H        6.58805724       3.83004859      -0.70036975
