15
Properties=species:S:1:pos:R:3 atomization_energy=-1525.55 smiles=C.C.C.O.C.C.O.H.H.H.H.H.H.H.H pbc="F F F"
C        0.93221966      -0.05092998       0.09428996
C        2.44151914       0.03060999      -0.01590000
C        3.19584880       1.05913963       0.88722963
O        2.44001903       1.70346939       1.93477918
C        4.19448835      -0.03563999       1.34438952
C        3.23108863      -1.06323964       0.73006971
O        3.11837881      -2.26618904       0.82925968
H        0.54993976      -0.89158966      -0.49412980
H        0.46940982       0.86351964      -0.29049989
H        0.60337974      -0.19058993       1.12887958
H        2.75076901       0.09796996      -1.06777958
H        3.68689854       1.83691932       0.28969987
H        2.08656917       0.99532960       2.50193910
H        5.16852788      -0.00472000       0.84826968
H        4.32626835      -0.13552994       2.42377899
