19
Properties=species:S:1:pos:R:3 atomization_energy=-1900.79 smiles=C.C.C.C.C.C.C.H.H.H.H.H.H.H.H.H.H.H.H pbc="F F F"
C        2.41189898      -0.51370979       1.46984938
C        2.22423922       0.10169996       0.08992996
C        2.92029878       1.44264946      -0.05148998
C        2.19449920       2.55760893      -0.24410991
C        4.39164839       1.46254944       0.07096997
C        5.24180791       0.53446978      -0.75750973
C        5.21208782       1.99799926      -1.07783952
H        1.86303926      -1.45891940       1.53694943
H        2.03646918       0.15189995       2.25463908
H        3.46643874      -0.72580973       1.67586940
H        1.14852950       0.20639992      -0.09749996
H        2.59564887      -0.58987976      -0.67388973
H        1.11189957       2.53339900      -0.31703987
H        2.67362882       3.52842871      -0.33001985
H        4.74577815       1.68881929       1.07281952
H        4.77245815      -0.13967994      -1.46462940
H        6.13926742       0.13228994      -0.29968989
H        6.08782768       2.59004889      -0.83969969
H        4.70982801       2.30087903      -1.98948927
