12
Properties=species:S:1:pos:R:3 atomization_energy=-1266.02 smiles=C.C.C.N.C.N.H.H.H.H.H.H pbc="F F F"
C        0.96134960      -0.01334999      -0.00767000
C        2.43752902       0.04440998      -0.00093000
C        3.32370858       1.09939959       0.00250000
N        4.61908818       0.65107974       0.00874999
C        4.53260820      -0.65859972       0.00921000
N        3.23201872      -1.07460956       0.00327000
H        0.52906979       0.99226958       0.00196000
H        0.59214980      -0.54895977       0.87269964
H        0.59981979      -0.52888978      -0.90305963
H        3.09825867       2.15843905       0.00069000
H        5.36502782      -1.34930947       0.01363000
H        2.91903889      -2.03556924       0.00230000
