17
Properties=species:S:1:pos:R:3 atomization_energy=-1664.11 smiles=C.C.O.C.C.C.O.H.H.H.H.H.H.H.H.H.H pbc="F F F"
C        1.03610961       0.04060998       0.04034998
C        2.55244901      -0.03117999       0.02377999
O        3.09815875       1.04034960       0.80504969
C        4.41430824       0.62689972       1.17917954
C        4.34840840      -0.87263964       1.39406951
C        3.10641882      -1.31478942       0.64140972
O        3.41659878      -2.29334921      -0.34286985
H        0.59627977      -0.76419972      -0.55528975
H        0.69677971       1.00115959      -0.36131984
H        0.65006972      -0.02499999       1.06272955
H        2.90212891       0.09046997      -1.00962959
H        5.09779792       0.87578969       0.35906987
H        4.73387821       1.16804959       2.07376917
H        5.27035767      -1.37196945       1.08019958
H        4.21506824      -1.07477963       2.46362891
H        2.39383913      -1.76842929       1.33889942
H        4.07109837      -1.91509924      -0.95522962
