12
Properties=species:S:1:pos:R:3 atomization_energy=-1262.96 smiles=N.C.C.C.N.N.C.H.H.H.H.H pbc="F F F"
N        0.99999962       0.00000000       0.00000000
C        2.15100915       0.00000000       0.00000000
C        3.59500859       0.00000000       0.00000000
C        4.19652845      -1.24501946       0.63774978
N        4.54406808      -0.76857969       1.97312925
N        4.69042828       0.57564980       2.01729920
C        4.12289844       1.02783958       0.94636964
H        4.00149834       0.18155992      -0.99915961
H        5.11086817      -1.53413935       0.10712996
H        3.52272855      -2.10631914       0.67225973
H        5.31371777      -1.27577952       2.41375917
H        4.04039848       2.10024919       0.71658973
