17
Properties=species:S:1:pos:R:3 atomization_energy=-1682.88 smiles=C.C.C.O.C.C.C.H.H.H.H.H.H.H.H.H.H pbc="F F F"
C       -1.68248931       0.70462974       0.22555990
C       -1.55699942      -0.73920972      -0.40147985
C       -0.18037993      -0.72433971       0.25365990
O        1.05715959      -1.23548953      -0.25388991
C        2.02001920      -0.17234993      -0.04518998
C        1.19865951       0.99477958       0.57069975
C       -0.16032994       0.80697971      -0.08346997
H       -2.32736902       1.39165949      -0.32761987
H       -1.94426923       0.73613973       1.28913945
H       -1.55502935      -0.77797972      -1.49616942
H       -2.26569901      -1.47426946      -0.01306999
H       -0.25367990      -0.97066965       1.32649949
H        2.81770896      -0.51154980       0.62060974
H        2.43321896       0.10161997      -1.02050961
H        1.13910959       0.89784962       1.66221929
H        1.65215934       1.96372927       0.34161987
H       -0.03032999       1.04787960      -1.15344958
