15
Properties=species:S:1:pos:R:3 atomization_energy=-1521.3 smiles=C.C.C.C.O.C.O.H.H.H.H.H.H.H.H pbc="F F F"
C        1.02528959       0.07474997       0.10299996
C        2.35324912       0.02234999      -0.04777998
C        3.15080868      -1.25052949      -0.04243998
C        4.15088829      -1.22240956      -1.18674948
O        4.92552784      -0.02631999      -1.11272962
C        4.06561849       1.11101957      -1.20401954
O        3.07595890       1.19430958      -0.17164993
H        0.50851981       1.02905960       0.11454996
H        0.42896983      -0.82242970       0.22632991
H        2.51194908      -2.13644914      -0.12070995
H        3.68979859      -1.30715943       0.91112962
H        4.83551825      -2.07317922      -1.11149951
H        3.65501851      -1.27989945      -2.16370924
H        4.69399826       2.00328927      -1.12487950
H        3.57984852       1.13989951      -2.18809907
