19
Properties=species:S:1:pos:R:3 atomization_energy=-1851.53 smiles=C.C.C.C.C.C.O.H.H.H.H.H.H.H.H.H.H.H.H pbc="F F F"
C        2.36167901      -1.13014956      -1.02364962
C        3.17056874      -0.51641979       0.10862995
C        3.11262869       0.98338960       0.06999997
C        4.19070843       1.77396935      -0.04889998
C        4.12667836       3.27967879      -0.07844997
C        4.69103791       3.85363853      -1.37852944
O        3.83565842       3.56633871      -2.48053914
H        2.40970900      -2.22266921      -0.97358962
H        2.74751898      -0.81801971      -1.99994915
H        1.30856946      -0.83581966      -0.96315964
H        4.20586824      -0.87195968       0.04633998
H        2.77045892      -0.85990966       1.06959952
H        2.12333927       1.43083947       0.15761994
H        5.18166778       1.32882951      -0.11930996
H        4.70889792       3.66258845       0.76771968
H        3.09194888       3.61903859       0.05020998
H        5.68900753       3.45879866      -1.59803933
H        4.76856820       4.94222813      -1.30006943
H        3.68817862       2.60406891      -2.48440915
