19
Properties=species:S:1:pos:R:3 atomization_energy=-1847.41 smiles=C.C.C.C.O.C.C.H.H.H.H.H.H.H.H.H.H.H.H pbc="F F F"
C        1.12714959      -0.49141979       0.14818994
C        2.64237886      -0.74596974       0.09960997
C        3.06151874      -1.42908943       1.40885940
C        2.94855887      -1.62711938      -1.11996951
O        3.23390868       0.56249980      -0.02490999
C        4.58847838       0.65442976      -0.14748994
C        5.18108792       1.81135930      -0.43925983
H        0.78861971       0.02077999      -0.76002969
H        0.86914965       0.16492994       0.98757962
H        0.56088981      -1.42304950       0.25121990
H        2.89249893      -0.76604969       2.26469902
H        4.12679848      -1.68128935       1.41296950
H        2.50283892      -2.35696899       1.57118940
H        2.71323902      -1.09897959      -2.05088916
H        2.37309901      -2.55871893      -1.09344962
H        4.00891839      -1.89560930      -1.16944953
H        5.15250788      -0.25230991       0.01503999
H        4.59496834       2.71177904      -0.59314978
H        6.25936751       1.88128924      -0.52818978
