15
Properties=species:S:1:pos:R:3 atomization_energy=-1513.3 smiles=C.C.C.O.C.C.O.H.H.H.H.H.H.H.H pbc="F F F"
C        1.02174963       0.35691985       0.68894974
C        2.32305920       0.27220988       0.37343985
C        3.20942876       1.38376948      -0.10775995
O        2.51447896       2.63569889      -0.13888995
C        3.38651862       3.54672853       0.52587979
C        4.12741845       2.67680895       1.50297946
O        4.33895809       1.47107937       0.77133969
H        0.47296980      -0.51430980       1.02974960
H        0.47979981       1.29564947       0.61251974
H        2.81506882      -0.69240971       0.46652980
H        3.57349860       1.15638949      -1.11519956
H        4.06222842       3.97544842      -0.22235992
H        2.81907886       4.34996831       1.00249960
H        5.07842796       3.10416878       1.83006928
H        3.51488862       2.44262915       2.38046911
