15
Properties=species:S:1:pos:R:3 atomization_energy=-1544.94 smiles=C.C.C.C.C.O.O.H.H.H.H.H.H.H.H pbc="F F F"
C        0.76067970      -0.02702999       0.08433997
C        2.24361902      -0.02291999       0.28455989
C        3.06136885       0.91348962      -0.22103991
C        4.54934836       0.93933963      -0.01151999
C        5.30822806       0.81515966      -1.32288951
O        4.93229788      -0.24296991      -2.07867916
O        6.21448737       1.56500943      -1.65690935
H        0.45705981      -0.94272964      -0.43233983
H        0.42039984       0.82894968      -0.50792979
H        0.25442989       0.00649000       1.05346956
H        2.64273893      -0.82917969       0.89616966
H        2.64869900       1.72938936      -0.81545968
H        4.88958829       0.13746995       0.65280973
H        4.82228801       1.89298922       0.45316981
H        4.19244825      -0.74607969      -1.68565934
