18
Properties=species:S:1:pos:R:3 atomization_energy=-1762.34 smiles=N.C.C.C.C.C.C.H.H.H.H.H.H.H.H.H.H.H pbc="F F F"
N        0.94027963      -0.05322998       0.03292999
C        2.39720901      -0.08967996       0.06846997
C        2.96346887       1.32318953      -0.05889998
C        4.49281808       1.31130952      -0.01857999
C        5.06330777       2.72413898      -0.13818994
C        6.53273764       2.70480889      -0.10680996
C        7.73399693       2.69244895      -0.08092996
H        0.57732975      -1.00427960       0.08643997
H        0.62694975       0.32060989      -0.86207965
H        2.76511884      -0.72202974      -0.74696972
H        2.72002901      -0.54097980       1.01276960
H        2.58129905       1.95079919       0.75620971
H        2.62700885       1.77618924      -1.00010964
H        4.87715795       0.68521972      -0.83417969
H        4.83312817       0.85215968       0.91855965
H        4.68806797       3.34777871       0.68148976
H        4.72405798       3.18457867      -1.07337957
H        8.79883635       2.68265900      -0.05716998
