17
Properties=species:S:1:pos:R:3 atomization_energy=-1635.94 smiles=C.C.C.C.N.C.H.H.H.H.H.H.H.H.H.H.H pbc="F F F"
C        0.98881958       0.00504000       0.00449000
C        2.50715908       0.01575000       0.04168999
C        3.08515890       1.13712955       0.89017963
C        4.48048817       0.62259974       1.17793959
N        4.28574849      -0.80568967       1.42706939
C        3.11517875      -1.24249955       0.65744972
H        0.62441975      -0.82875968      -0.60398975
H        0.60714975       0.93478966      -0.42963983
H        0.56366980      -0.09793996       1.00833961
H        2.88507888       0.12432995      -0.98441962
H        2.52010897       1.26237947       1.82177932
H        3.09622867       2.09494923       0.36100986
H        5.13084776       0.76710967       0.30726989
H        4.93525823       1.12062961       2.03863923
H        5.11547776      -1.33374947       1.16071949
H        3.40136857      -1.95581919      -0.12341995
H        2.41784895      -1.74742928       1.33385949
