17
Properties=species:S:1:pos:R:3 atomization_energy=-1664.61 smiles=C.C.C.C.O.C.O.H.H.H.H.H.H.H.H.H.H pbc="F F F"
C        0.99634958      -0.24189990       0.27803990
C        2.43656916      -0.07098997      -0.20589992
C        2.77272890      -1.12585955      -1.26507954
C        2.72368882       1.36166942      -0.68538973
O        4.11905846       1.49876944      -0.94969966
C        1.91351927       1.75305930      -1.91647923
O        2.43240897       1.97064921      -3.00965886
H        0.74982971       0.50501982       1.03975958
H        0.85669969      -1.23191955       0.72559972
H        0.27736990      -0.14572994      -0.54177981
H        3.09889884      -0.26632990       0.64863977
H        2.13826920      -1.02434959      -2.15160920
H        2.62440909      -2.13410927      -0.86329967
H        3.81749839      -1.04894961      -1.58304935
H        2.47753892       2.07993917       0.10412996
H        4.21404831       1.54267937      -1.92372922
H        0.82421967       1.84349923      -1.77164929
