15
Properties=species:S:1:pos:R:3 atomization_energy=-1516.64 smiles=C.C.C.C.O.C.O.H.H.H.H.H.H.H.H pbc="F F F"
C        0.79448969      -1.10317951       0.60149974
C       -0.37729986      -1.48570941      -0.30748989
C       -1.51260943      -0.50065982      -0.24797990
C       -1.39611945       0.79954969       0.04899998
O       -0.24500990       1.51899935       0.21944991
C        0.89177966       1.02725960      -0.49331981
O        1.60626937      -0.03882998       0.12005995
H        1.45550939      -1.97000917       0.71166972
H        0.44798983      -0.84830968       1.61061931
H       -0.76340967      -2.45422907       0.03153999
H       -0.05238998      -1.60427936      -1.34685946
H       -2.51177901      -0.91148964      -0.38166986
H       -2.25592900       1.44010949       0.20946992
H        1.59511936       1.86353926      -0.56605975
H        0.63545975       0.76837972      -1.52967939
