10
Properties=species:S:1:pos:R:3 atomization_energy=-1148.4 smiles=N.C.C.C.N.C.N.H.H.H pbc="F F F"
N        0.97431962       0.09511997      -0.00000000
C        2.33884909      -0.03855998      -0.00000000
C        3.03993887      -1.18349958       0.00000000
C        2.43147913      -2.46435915      -0.00000000
N        1.92523929      -3.50706862      -0.00000000
C        3.05908879       1.20507958      -0.00000000
N        3.63945850       2.20965901       0.00000000
H        0.54992979       1.01856963       0.00000000
H        0.36779987      -0.71896972       0.00000000
H        4.12540838      -1.16921952       0.00000000
