17
Properties=species:S:1:pos:R:3 atomization_energy=-1724.71 smiles=C.C.C.C.C.C.O.H.H.H.H.H.H.H.H.H.H pbc="F F F"
C        1.05746958       0.10886996       0.06896997
C        2.38729895       0.01499999      -0.03290999
C        3.13878887      -1.28750951      -0.03201999
C        4.15153829      -1.32965943      -1.17110948
C        4.97166812      -0.04417998      -1.19642954
C        4.04154836       1.16395955      -1.20614946
O        3.15165878       1.16717955      -0.08298997
H        0.57385975       1.08015958       0.09068997
H        0.42719985      -0.77063972       0.13737994
H        2.45989895      -2.14407913      -0.11275996
H        3.66483849      -1.38424941       0.92588961
H        4.81126820      -2.19714919      -1.05809959
H        3.62608848      -1.44672940      -2.12769904
H        5.60482780      -0.00892000      -0.30213987
H        5.62754771      -0.02790999      -2.07265916
H        4.63380817       2.08377915      -1.15560953
H        3.45444872       1.20629947      -2.13271918
