21
Properties=species:S:1:pos:R:3 atomization_energy=-1991.95 smiles=C.C.C.C.C.C.O.H.H.H.H.H.H.H.H.H.H.H.H.H.H pbc="F F F"
C        0.96623959      -0.02456999      -0.00774000
C        2.48602911       0.00531000       0.02106999
C        3.02010891       1.43770944      -0.00766000
C        4.54911824       1.46081945       0.01322000
C        5.08452781       2.89039878      -0.00844999
C        6.60759727       2.91840881       0.00631000
O        7.06560726       4.26440834       0.00067000
H        0.60756976      -1.05809959       0.01678999
H        0.58215975       0.44689982      -0.91770967
H        0.54711977       0.50134981       0.85569964
H        2.87308886      -0.55362979      -0.83889968
H        2.83882883      -0.50479982       0.92500961
H        2.63122885       1.99173918       0.85573964
H        2.65659899       1.94734919      -0.90866965
H        4.93580781       0.91078967      -0.85295964
H        4.91178789       0.94660961       0.91118962
H        4.70369838       3.45309874       0.85296967
H        4.71904819       3.41923867      -0.89754966
H        7.02444699       2.40673906      -0.86733968
H        6.99757724       2.43327901       0.90631962
H        6.73453755       4.68255807      -0.81097966
