13
Properties=species:S:1:pos:R:3 atomization_energy=-1311.19 smiles=C.C.O.C.C.O.C.H.H.H.H.H.H pbc="F F F"
C        1.98676926      -0.17142993      -0.08918997
C        0.69048972      -0.79855967       0.21162991
O       -0.40779983      -1.30285945      -0.58257975
C       -1.50766942      -0.48081980      -0.27475988
C       -1.38450943       0.75706972       0.25487990
O       -0.14207994       1.36726941       0.50807980
C        0.81115970       0.67827973      -0.33288987
H        2.53450901      -0.54836976      -0.94579962
H        2.63154905       0.09760996       0.73920972
H        0.58577976      -0.98019963       1.28291948
H       -2.44032915      -0.97025961      -0.51615980
H       -2.20154909       1.40346948       0.53628978
H        0.69133970       0.88026964      -1.39977939
