12
Properties=species:S:1:pos:R:3 atomization_energy=-1223.35 smiles=C.C.C.N.N.C.H.H.H.H.H.H pbc="F F F"
C        0.94434960       0.00037000       0.04027998
C        2.45466913       0.00037000       0.11187996
C        3.05047874       1.11553958      -0.67569970
N        3.78431859       0.71256972      -1.66071930
N        3.78433853      -0.71615970      -1.65882934
C        3.05050877      -1.11639953      -0.67304972
H        0.53262977       0.89059964       0.52741980
H        0.53238981      -0.88586962       0.53437982
H        0.58691979      -0.00366000      -0.99619964
H        2.82410884       0.00171000       1.13913949
H        2.87455894       2.16760927      -0.41813983
H        2.87463893      -2.16840916      -0.41288983
