17
Properties=species:S:1:pos:R:3 atomization_energy=-1724.64 smiles=C.C.C.C.C.C.O.H.H.H.H.H.H.H.H.H.H pbc="F F F"
C        2.43058916      -0.50892981      -1.54223943
C        2.42278909       0.04036999      -0.12481995
C        3.30087865       1.27976950      -0.02669999
C        2.74757904       2.58933908      -0.66629974
C        3.05944886       3.38657868       0.62187978
C        3.23767876       2.02902920       1.32585945
O        3.29609874       1.68672936       2.48737908
H        1.81670922      -1.41217945      -1.60291942
H        3.44709856      -0.76301969      -1.85769930
H        2.03242923       0.22300991      -2.25119904
H        2.79572889      -0.73102970       0.55988975
H        1.39236943       0.26703990       0.17514994
H        4.34253817       1.07343962      -0.30733988
H        1.67778939       2.56124906      -0.90590965
H        3.28903877       2.92767896      -1.55520938
H        3.98081853       3.97423849       0.58770978
H        2.23666906       3.99285852       1.00508958
