15
Properties=species:S:1:pos:R:3 atomization_energy=-1522.92 smiles=N.C.C.C.C.C.N.H.H.H.H.H.H.H.H pbc="F F F"
N        1.06544955      -0.03000999       0.33314987
C        2.21254922      -0.06054998       0.16666994
C        3.66339868      -0.09277996      -0.05584998
C        4.28322821       1.27913943       0.20065992
C        5.75421749       1.28033952      -0.09109996
C        6.69607722       2.08281916       0.77007967
N        6.66135745       0.62351974       0.84180969
H        3.87062850      -0.41043985      -1.08441957
H        4.11952830      -0.84131966       0.60243974
H        4.09015846       1.58377934       1.23788946
H        3.80339863       2.03334923      -0.43608982
H        5.97963763       1.17900959      -1.14669959
H        6.30672756       2.60587889       1.63503930
H        7.57134723       2.52655906       0.31210989
H        7.46985708       0.22341992       0.35981986
