17
Properties=species:S:1:pos:R:3 atomization_energy=-1745.24 smiles=C.C.C.C.C.C.C.H.H.H.H.H.H.H.H.H.H pbc="F F F"
C        0.89902965       0.20589992      -0.12137995
C        2.09364921       0.13522995      -0.21924992
C        3.55613872       0.04373998      -0.33907987
C        4.24757834       1.19221951       0.39639985
C        5.74066781       1.11315959       0.25950989
C        6.62664726       1.69706938       1.32855952
C        6.54306758       0.20554993       1.15459958
H       -0.16133994       0.26776989      -0.03422998
H        3.84060840       0.05562998      -1.39916950
H        3.89878842      -0.91616963       0.06525998
H        3.95582840       1.18338956       1.45461942
H        3.90997855       2.15356906      -0.01115999
H        6.06384763       1.22678953      -0.77013973
H        6.16702739       2.13054913       2.20965901
H        7.53855678       2.19401902       1.01713960
H        7.39812687      -0.30414988       0.72464970
H        6.02649756      -0.36499985       1.91833930
