15
Properties=species:S:1:pos:R:3 atomization_energy=-1490.08 smiles=C.C.C.O.C.C.O.H.H.H.H.H.H.H.H pbc="F F F"
C        1.05809959       0.04866998       0.01729000
C        0.75210971       0.72708974       1.31547943
C       -0.36071986       0.24452990       2.20660909
O        1.01458960      -0.06172997       2.48197894
C        2.52954893      -0.00350000      -0.25187990
C        3.31406876      -1.27595956      -0.07130997
O        2.89120876      -0.82882970      -1.36731949
H        0.62893976      -0.96169965       0.00072000
H        0.57110978       0.60862974      -0.79024971
H        1.02030958       1.77495925       1.33455945
H       -0.99470962      -0.56696979       1.87018932
H       -0.85074966       0.96294963       2.85202878
H        3.03099877       0.94851963      -0.15267994
H        2.81877885      -2.14403926       0.34693987
H        4.36785809      -1.19974959       0.16519993
