17
Properties=species:S:1:pos:R:3 atomization_energy=-1648.73 smiles=C.C.O.C.C.C.O.H.H.H.H.H.H.H.H.H.H pbc="F F F"
C        1.15848951      -0.10629996      -0.19181992
C        2.62201901       0.15308994      -0.13090994
O        3.34861872      -0.23231991      -1.30322950
C        3.32828864       1.17795952      -1.00440961
C        2.58054887       1.99798917      -2.01052915
C        4.66450831       1.70979937      -0.56865977
O        5.61768761       1.50863938      -1.60472940
H        0.61345974       0.69180973       0.32028987
H        0.92662964      -1.05085957       0.30989988
H        0.78479966      -0.17844993      -1.21731954
H        3.04388886      -0.08648997       0.83723965
H        1.76161925       1.44452945      -2.47950913
H        3.24775864       2.32859913      -2.81302897
H        2.15928915       2.88649875      -1.53040939
H        5.03088825       1.20459952       0.33061987
H        4.60624805       2.78071897      -0.35205985
H        5.49869778       0.58577976      -1.89732931
