19
Properties=species:S:1:pos:R:3 atomization_energy=-1861.04 smiles=C.C.C.C.C.C.O.H.H.H.H.H.H.H.H.H.H.H.H pbc="F F F"
C        3.38043870      -1.02605957      -0.59802975
C        3.27482873      -0.19255993       0.67302972
C        3.36628872       1.31779949       0.40700984
C        3.10662876       2.10191912       1.70187932
C        3.07284892       3.60975861       1.48696943
C        4.74495807       1.65478939      -0.12235995
O        4.93669803       2.16309910      -1.22319949
H        3.24970865      -2.08713919      -0.36274987
H        4.35893818      -0.90859962      -1.07331952
H        2.60871888      -0.74104972      -1.31966951
H        4.06391828      -0.50615982       1.36821943
H        2.31567902      -0.42046983       1.15401959
H        2.62510906       1.60302931      -0.34912985
H        3.87400848       1.86886925       2.45045898
H        2.14275918       1.79429931       2.12525925
H        4.04875847       3.99021838       1.16889957
H        2.80712896       4.11650841       2.42064908
H        2.33138916       3.88348856       0.72950972
H        5.59287790       1.41751941       0.54414977
