14
Properties=species:S:1:pos:R:3 atomization_energy=-1381.68 smiles=C.C.C.N.C.N.H.H.H.H.H.H.H.H pbc="F F F"
C        1.04899957       0.06494997       0.02347999
C        2.56980889      -0.01706999      -0.01877999
C        3.07249868      -1.21928949      -0.84699964
N        3.42770867      -0.68351970      -2.19728923
C        3.43436870       0.60029978      -2.01613923
N        3.11581866       1.08636958      -0.78741968
H        0.72700969       0.97178962       0.54469979
H        0.63116973      -0.79846971       0.55024981
H        0.61644974       0.09204996      -0.98230962
H        2.97693881      -0.03580998       0.99721963
H        2.32136909      -2.01080924      -0.93600961
H        3.97659854      -1.64743936      -0.39875984
H        3.64810867       1.34552943      -2.79856888
H        2.65545895       1.98649927      -0.73530968
