15
Properties=species:S:1:pos:R:3 atomization_energy=-1515.17 smiles=C.C.C.O.C.C.O.H.H.H.H.H.H.H.H pbc="F F F"
C        1.07831958       0.05882998       0.06237998
C        2.40979908       0.01772999      -0.06109998
C        3.21867872      -1.25746948      -0.05790998
O        4.16049833      -1.27212954      -1.13692958
C        4.95944822      -0.08367997      -1.11116958
C        4.05635843       1.13627957      -1.24389948
O        3.11791881       1.20826955      -0.16031994
H        0.55455976       1.00921961       0.06873997
H        0.48556980      -0.84480965       0.15505994
H        2.57856908      -2.13845921      -0.16878993
H        3.76174858      -1.35669950       0.88934965
H        5.53135802      -0.05977998      -0.17612993
H        5.66324753      -0.13162995      -1.94703920
H        4.65450842       2.05253915      -1.22768947
H        3.49683861       1.11142961      -2.18759921
