17
Properties=species:S:1:pos:R:3 atomization_energy=-1705.28 smiles=C.C.C.C.O.C.C.H.H.H.H.H.H.H.H.H.H pbc="F F F"
C        2.88993878      -1.65702933       1.09153960
C        3.33088866      -0.27878989       1.50980944
C        3.21950863       0.11312996       2.79268880
C        3.87873843       0.57495980       0.38337984
O        2.77227899       1.14782953      -0.30081989
C        4.84776792       1.64362941       0.82274966
C        4.74030811       2.96708881       0.63017978
H        2.13696919      -1.59567941       0.29833989
H        2.45084909      -2.22173912       1.92205929
H        3.74564858      -2.23065903       0.71657970
H        2.81565877      -0.54664981       3.55521872
H        3.51525853       1.10472959       3.11948882
H        4.41172841      -0.06254998      -0.33158986
H        2.22287915       1.56067942       0.38645986
H        5.73657752       1.27310947       1.33208951
H        3.89492851       3.40271854       0.10753995
H        5.51403801       3.64261844       0.98095959
