15
Properties=species:S:1:pos:R:3 atomization_energy=-1590.23 smiles=C.C.C.C.C.C.O.H.H.H.H.H.H.H.H pbc="F F F"
C        0.99958958      -0.10075996       0.00659000
C        2.48385906       0.04423998      -0.09186996
C        3.12041866       1.22893952      -0.06959997
C        4.61327800       1.33321945      -0.17320994
C        5.26657775      -0.00797000      -0.30711988
C        4.53925814      -1.13150950      -0.31986986
O        3.16660865      -1.16122958      -0.21427991
H        0.49356981       0.86949963       0.04753998
H        0.73377974      -0.65949972       0.90969967
H        0.61389974      -0.64403976      -0.86225968
H        2.56227908       2.15441916       0.02636999
H        5.00191809       1.83551926       0.71937970
H        4.87157790       1.94789927      -1.04222959
H        6.34658732      -0.05249998      -0.39434985
H        4.94583798      -2.12844923      -0.41351983
