17
Properties=species:S:1:pos:R:3 atomization_energy=-1700.64 smiles=C.C.C.C.C.O.C.H.H.H.H.H.H.H.H.H.H pbc="F F F"
C        0.97823964       0.00210000       0.06069997
C        2.49134901       0.02773999      -0.07568997
C        3.23114868       1.05670956      -1.01744959
C        2.82722891       0.07074997      -2.16812907
C        3.27270865      -0.93979963      -1.05387960
O        4.68777829      -0.69817971      -0.82902968
C        4.72363810       0.74283969      -0.79644968
H        0.64445977       0.83193969       0.69240971
H        0.65887974      -0.92890964       0.53905980
H        0.44882984       0.08433997      -0.89085966
H        2.90330881       0.01103000       0.94454964
H        2.89294884       2.09045912      -1.05485959
H        3.45658874       0.09799997      -3.06359870
H        1.78310930       0.05249998      -2.48751913
H        2.99051878      -1.99027919      -1.12463953
H        5.35746798       1.11768957      -1.60510940
H        5.08658785       1.08456958       0.17693993
