15
Properties=species:S:1:pos:R:3 atomization_energy=-1524.13 smiles=C.C.O.C.C.C.O.H.H.H.H.H.H.H.H pbc="F F F"
C        1.13053954      -0.02225999       0.11386995
C        2.64328902      -0.03796998       0.00949000
O        3.17479882       1.11625961       0.66506974
C        4.42832827       0.68164974       1.18341959
C        4.25474808      -0.78782966       1.30814945
C        4.99678820      -1.61973932       2.04453924
O        3.15538874      -1.23562945       0.60464978
H        0.69451970      -0.89199964      -0.38803983
H        0.71665969       0.89307968      -0.32134988
H        0.81580966      -0.05809998       1.16322956
H        2.94815892      -0.01381000      -1.04403956
H        5.21503808       0.93445960       0.46559981
H        4.61616820       1.17914951       2.13844912
H        4.76068790      -2.67838905       2.08360921
H        5.84452786      -1.26667944       2.61969907
