18
Properties=species:S:1:pos:R:3 atomization_energy=-1750.7 smiles=C.C.C.C.C.C.H.H.H.H.H.H.H.H.H.H.H.H pbc="F F F"
C        0.94305962      -0.00848000       0.04898998
C        2.45776902       0.00924000       0.01017000
C        3.16100866       1.04965961       0.91763964
C        4.23535844      -0.02306999       1.22672947
C        5.49387775       0.02686999       0.37354987
C        3.18481864      -1.08911962       0.82565966
H        0.55465981      -0.86914965      -0.50537980
H        0.53593979       0.89803963      -0.40927985
H        0.56439979      -0.06848997       1.07482959
H        2.81397900       0.05860998      -1.02691958
H        2.58027887       1.34552943       1.79971926
H        3.51153867       1.95383928       0.41224985
H        4.50656812      -0.06524997       2.28902905
H        5.26461815       0.06423998      -0.69607974
H        6.11374765      -0.85701965       0.55500979
H        6.08934772       0.91112962       0.62219974
H        3.55486848      -1.93875921       0.24512989
H        2.61203905      -1.47235945       1.67874938
