15
Properties=species:S:1:pos:R:3 atomization_energy=-1543.82 smiles=C.C.C.C.C.O.O.H.H.H.H.H.H.H.H pbc="F F F"
C        1.81681924      -0.63223975      -0.99487963
C        2.90524898      -0.27720989       0.00598000
C        3.05323874       1.21187953       0.14706995
C        4.17620847       1.87190921      -0.18148994
C        4.38781850       3.32301870      -0.01998999
O        3.27274877       4.06433841      -0.14782994
O        5.49604780       3.79916854       0.16469994
H        1.70855929      -1.71926937      -1.06596961
H        2.05839917      -0.25037990      -1.99267924
H        0.84939968      -0.21518991      -0.69522971
H        3.84851848      -0.73961969      -0.30746989
H        2.65306887      -0.69974971       0.98531962
H        2.20383924       1.72953937       0.58643979
H        5.05468813       1.34319953      -0.54001980
H        2.49963910       3.56025853      -0.45755980
