15
Properties=species:S:1:pos:R:3 atomization_energy=-1545.17 smiles=C.C.C.C.C.O.O.H.H.H.H.H.H.H.H pbc="F F F"
C        0.99571958      -0.01079000      -0.17596994
C        2.48847899      -0.10216996       0.00173000
C        2.99973871      -1.49659939       0.24708990
C        3.24148871       1.01557962      -0.01392000
C        4.70683839       1.09055954       0.13748994
O        5.36368794       0.25743989      -0.69107974
O        5.25394807       1.90150930       0.86409969
H        0.65923976       1.01727958      -0.34718986
H        0.48172980      -0.38441986       0.71697971
H        0.68030973      -0.61058979      -1.03583962
H        2.40209894      -1.98678920       1.02303961
H        4.03705838      -1.51806938       0.59128979
H        2.92812887      -2.09041912      -0.66945974
H        2.78095893       1.99674922      -0.09443996
H        4.76661819      -0.23600990      -1.28365944
