19
Properties=species:S:1:pos:R:3 atomization_energy=-1848.38 smiles=C.C.C.O.C.C.C.H.H.H.H.H.H.H.H.H.H.H.H pbc="F F F"
C        2.13921923      -0.51363980      -1.42750946
C        2.46431904       0.00373000      -0.03332999
C        3.28155866       1.29593952      -0.08741997
O        4.54612811       1.03199958      -0.73877968
C        2.51462909       2.55239905      -0.59073977
C        3.16812870       3.34927857       0.55344975
C        3.39375876       2.01572920       1.28879943
H        1.54340936      -1.42909940      -1.36078941
H        3.04958877      -0.74327969      -1.98953923
H        1.56761941       0.22314992      -2.00002927
H        3.02032869      -0.76490972       0.51673978
H        1.52489936       0.16477993       0.50938981
H        5.02578813       1.87736928      -0.73909970
H        1.42369938       2.48469907      -0.51067979
H        2.77174884       2.89653876      -1.59633938
H        4.09653841       3.85449848       0.26278990
H        2.51899897       4.06700833       1.06155962
H        4.35881807       1.92764918       1.79498931
H        2.59994885       1.76909936       2.00257921
