15
Properties=species:S:1:pos:R:3 atomization_energy=-1607.36 smiles=C.C.C.C.C.C.O.H.H.H.H.H.H.H.H pbc="F F F"
C        1.03196961      -0.08401997      -0.00671000
C        2.49273910       0.12265995       0.00021000
C        3.29475861       1.24296951       0.00368000
C        4.63118796       0.77563973       0.01017999
C        4.56081833      -0.60093976       0.01028999
C        5.58264789      -1.66657932       0.01549999
O        3.25940877      -1.00282958       0.00401000
H        0.49954981       0.87237968       0.00164000
H        0.72138970      -0.65441973       0.87417969
H        0.72742970      -0.63578973      -0.90143966
H        2.95691885       2.26968912       0.00178000
H        5.53557801       1.36742951       0.01433000
H        5.12400807      -2.66002892       0.02372999
H        6.21980752      -1.57908938       0.90073963
H        6.21561731      -1.59159934      -0.87384964
