15
Properties=species:S:1:pos:R:3 atomization_energy=-1524.28 smiles=N.C.C.C.C.C.N.H.H.H.H.H.H.H.H pbc="F F F"
N        3.23205883      -0.90691967      -2.41332894
C        3.37742864      -0.49467981      -1.33859953
C        3.57101870       0.03295999       0.01789999
C        4.34053819       1.34656941      -0.03354999
C        3.58045866       2.59947901      -0.53372981
C        4.29850838       3.32394880       0.61523975
N        4.41578842       2.01491921       1.29904951
H        4.12771847      -0.70021974       0.61363978
H        2.59613890       0.16579993       0.50244979
H        5.33229793       1.23508946      -0.49602982
H        2.49059908       2.55695892      -0.41921984
H        3.82447838       2.94091878      -1.54276945
H        5.26333782       3.76318863       0.33589987
H        3.70583853       4.07036837       1.15025960
H        5.29366804       1.88358924       1.80153932
