13
Properties=species:S:1:pos:R:3 atomization_energy=-1407.25 smiles=C.C.C.O.C.O.C.H.H.H.H.H.H pbc="F F F"
C        0.92791962       0.03803998      -0.00815000
C        2.40760910      -0.02595999      -0.00072000
C        3.29314874       1.03353962       0.00300000
O        4.57685802       0.59150976       0.00960000
C        4.52264818      -0.76114973       0.01006999
O        5.70098771      -1.35415941       0.01624999
C        3.21946877      -1.19681952       0.00381000
H        0.57317979       1.07373952       0.00176000
H        0.51907981      -0.46904980       0.87167965
H        0.52913978      -0.44888983      -0.90383965
H        3.17493886       2.10835912       0.00179000
H        5.52791774      -2.30948908       0.01600999
H        2.88585884      -2.22422913       0.00265000
