17
Properties=species:S:1:pos:R:3 atomization_energy=-1696.86 smiles=C.C.C.C.C.C.O.H.H.H.H.H.H.H.H.H.H pbc="F F F"
C        1.00105960      -0.05429998       0.00266000
C        2.51999896       0.00000000       0.00000000
C        3.00201878       1.36116943       0.00000000
C        3.39929870       2.48306901       0.00000000
C        3.88131852       3.84423844       0.00000000
C        5.00831822       4.02891842      -1.00894962
O        2.80712896       4.71541816      -0.33961986
H        0.65778974      -1.09376957       0.00219000
H        0.58520974       0.44147984      -0.88142967
H        0.58841977       0.43956982       0.88933962
H        2.89591878      -0.53274982      -0.88069968
H        2.89909891      -0.53400977       0.87855965
H        4.23274833       4.12349849       0.99889958
H        4.66252801       3.82622854      -2.02807917
H        5.85340790       3.36675856      -0.79327970
H        5.36662810       5.06407788      -0.99859962
H        3.17255888       5.61181788      -0.40576983
