17
Properties=species:S:1:pos:R:3 atomization_energy=-1686.25 smiles=C.C.C.C.C.O.O.H.H.H.H.H.H.H.H.H.H pbc="F F F"
C        1.03449961      -0.33793987       0.14250994
C        2.55112906      -0.32104986       0.03733998
C        3.10158869       1.10221952       0.11167995
C        4.62597833       1.11468960       0.01191000
C        5.18492790       2.51787912       0.07197997
O        6.53251761       2.53783903      -0.05945997
O        4.53064809       3.53614853       0.22419992
H        0.66168977      -1.36526943       0.08254997
H        0.57827978       0.23699991      -0.66968974
H        0.70266975       0.08874997       1.09444961
H        2.85103889      -0.78738972      -0.90844961
H        2.97437891      -0.92736966       0.84671968
H        2.78956898       1.57110941       1.05315957
H        2.67390891       1.70676938      -0.69782973
H        4.93642804       0.66345975      -0.93713962
H        5.05664824       0.54068980       0.83994969
H        6.92860703       1.65342933      -0.17230993
