17
Properties=species:S:1:pos:R:3 atomization_energy=-1715.95 smiles=C.C.C.C.C.C.O.H.H.H.H.H.H.H.H.H.H pbc="F F F"
C        0.94579962       0.53408976       0.50678979
C        2.37945902       0.57466980      -0.01904999
C        2.47326897      -0.14467994      -1.37097943
C        3.88989853      -0.33175987      -1.84256927
C        4.36613821       0.17055994      -2.98905879
C        2.86164892       2.00869924      -0.15685994
O        2.18326920       2.99925877       0.09926996
H        0.86928963       1.04227961       1.47430946
H        0.60808975      -0.49856982       0.64232972
H        0.25362990       1.03075962      -0.18313993
H        3.03339869       0.08809997       0.71530972
H        1.89020928       0.40129984      -2.12395924
H        2.02239919      -1.14139950      -1.28620950
H        4.54961836      -0.92832966      -1.21497954
H        3.74552847       0.75767974      -3.66010853
H        5.39505776      -0.00490000      -3.28998879
H        3.91209839       2.12804928      -0.47442982
