19
Properties=species:S:1:pos:R:3 atomization_energy=-1844.38 smiles=C.C.C.O.C.C.C.H.H.H.H.H.H.H.H.H.H.H.H pbc="F F F"
C        1.06717954       0.08654997      -0.11926995
C        2.55631901       0.04922998      -0.08875996
C        3.39097858      -0.65318974      -1.13190957
O        2.74101893      -1.20564947      -2.28475911
C        3.43753874       0.86128966      -1.02756959
C        2.83363888       1.69915932      -2.12742905
C        4.68549823       1.47406937      -0.43827984
H        0.70218970       0.84818969       0.57719980
H        0.66584977      -0.87988963       0.20200992
H        0.64846976       0.31182986      -1.10237962
H        2.89272881      -0.06491997       0.93919965
H        4.25854819      -1.20137952      -0.77303971
H        1.78445927      -1.04554958      -2.29453921
H        1.96985928       1.23239948      -2.60855890
H        3.57771859       1.88481924      -2.90975890
H        2.51010908       2.66649895      -1.72872926
H        5.10577814       0.86021965       0.36544985
H        4.46359813       2.46278915      -0.02389999
H        5.45369803       1.58708942      -1.21003953
