17
Properties=species:S:1:pos:R:3 atomization_energy=-1625.21 smiles=N.C.C.N.C.C.C.H.H.H.H.H.H.H.H.H.H pbc="F F F"
N        2.90729892      -0.80630970      -1.19734954
C        2.32963899      -0.10157996      -0.04672998
C        2.81785885       1.35719950       0.05442998
N        4.28200844       1.44080946      -0.03851998
C        4.72761837       2.82737880       0.05897997
C        6.19211770       2.87934894      -0.03611999
C        7.39036718       2.92482888      -0.10929996
H        2.54482911      -1.75913934      -1.21103952
H        3.90950846      -0.90223961      -1.02508961
H        2.59860897      -0.64369975       0.86740964
H        1.23752951      -0.11231995      -0.12705995
H        2.47202901       1.77538935       1.00691961
H        2.36162904       1.93968930      -0.75599971
H        4.55070842       1.08469953      -0.95694964
H        4.41417804       3.26035880       1.01580962
H        4.28867856       3.43075860      -0.74411970
H        8.45357653       2.95946891      -0.16840993
