15
Properties=species:S:1:pos:R:3 atomization_energy=-1508.09 smiles=C.C.O.C.C.C.O.H.H.H.H.H.H.H.H pbc="F F F"
C        0.99641961       0.06981997       0.47382981
C        2.35690919      -0.02677999      -0.19113992
O        2.47334896      -1.30260952      -0.84946964
C        2.51183907      -1.05257959      -2.26900909
C        3.73375848      -0.37692985      -2.81591892
C        2.52377913       0.43475982      -2.46090903
O        2.49225892       1.03729961      -1.15143950
H        0.87254963       1.03539961       0.97221959
H        0.85765969      -0.73638973       1.19982958
H        0.19752992      -0.01907999      -0.27058989
H        3.16335887       0.06144998       0.54424975
H        1.90275923      -1.65773939      -2.92712888
H        4.61009812      -0.30218990      -2.18268909
H        3.95803832      -0.51442978      -3.86694850
H        1.92297929       0.86233967      -3.25249868
