17
Properties=species:S:1:pos:R:3 atomization_energy=-1727.5 smiles=C.C.C.C.C.C.O.H.H.H.H.H.H.H.H.H.H pbc="F F F"
C        0.86668967       0.11754995      -0.17622993
C        2.34141908      -0.13368994       0.01077000
C        2.69565885      -1.57832936       0.22235992
C        3.20206876       0.90242962       0.02003999
C        4.68519796       0.87376965       0.14891995
C        5.48212769      -0.20221993      -0.53799976
O        5.23854779       1.78267933       0.76755970
H        0.64114975       1.17700949      -0.33779986
H        0.30950986      -0.20979993       0.70763973
H        0.49762979      -0.43573984      -1.04608957
H        1.97224924      -2.05195917       0.89524966
H        3.67448864      -1.71166927       0.68755971
H        2.67937895      -2.11638918      -0.73037970
H        2.82617896       1.92122925      -0.05464998
H        4.90068784      -0.68945971      -1.32441952
H        5.81596750      -0.93968961       0.19526992
H        6.35383731       0.25590990      -1.01495959
