19
Properties=species:S:1:pos:R:3 atomization_energy=-1848.73 smiles=C.C.C.C.C.C.O.H.H.H.H.H.H.H.H.H.H.H.H pbc="F F F"
C        2.30817898      -0.45705981      -1.49677943
C        2.45978893       0.03264999      -0.06580998
C        3.25824880       1.32823944      -0.02455999
C        2.55439902       2.61422903      -0.53048981
C        3.25686880       3.37089856       0.61302977
C        3.34372879       2.02309916       1.36692952
O        4.54197827       1.78631933       2.12676921
H        1.75188936      -1.39906945      -1.51964935
H        3.28600877      -0.62525976      -1.95946929
H        1.76883933       0.27276990      -2.10879918
H        2.97390882      -0.73529972       0.52367980
H        1.46743937       0.17129993       0.37896985
H        4.25247811       1.19321951      -0.47586982
H        1.46196945       2.60072906      -0.43826984
H        2.82085881       2.93404881      -1.54121938
H        4.22882836       3.79462860       0.33567987
H        2.65687907       4.14594840       1.09708962
H        2.46241898       1.84385931       1.99615927
H        5.27825816       1.97188916       1.51966941
