15
Properties=species:S:1:pos:R:3 atomization_energy=-1544.06 smiles=C.C.C.C.O.C.C.H.H.H.H.H.H.H.H pbc="F F F"
C        0.98370962      -0.07048997       0.21182991
C        2.46986906       0.07820997      -0.07006997
C        3.19960879       1.14329955       0.77033970
C        4.08613832      -0.01386999       1.22116948
O        3.22039861      -0.98229959       0.58323979
C        2.77423884       0.09043996      -1.48948946
C        3.03382891       0.09572996      -2.66166907
H        0.78880972      -0.15343994       1.28698946
H        0.57489980      -0.96895959      -0.26480989
H        0.42341983       0.79490970      -0.15964994
H        2.60810899       1.59352942       1.57341937
H        3.71903848       1.93274918       0.21982992
H        5.09032790      -0.03381999       0.78698971
H        4.14323836      -0.16722994       2.30196911
H        3.26956864       0.08932997      -3.70161854
