17
Properties=species:S:1:pos:R:3 atomization_energy=-1612.56 smiles=C.C.C.C.N.C.H.H.H.H.H.H.H.H.H.H.H pbc="F F F"
C        0.99263963      -0.05915998       0.07453997
C        2.50674904      -0.00346000       0.03271999
C        3.18100869       1.07877959       0.90955962
C        4.20039846      -0.02877999       1.24281950
N        3.13512881      -1.01512959       0.92996962
C        3.67806846      -2.12627918       0.15607994
H        0.62189978      -0.95266960      -0.43949983
H        0.56482977       0.81441970      -0.42879985
H        0.60872979      -0.07474997       1.10100959
H        2.88453890       0.00357000      -1.00000959
H        2.59060907       1.41281949       1.77105935
H        3.57567850       1.95083918       0.38212986
H        5.07273789      -0.03397999       0.57721980
H        4.54763806      -0.04397998       2.27990904
H        2.86136883      -2.75275889      -0.21975991
H        4.30190829      -2.75751887       0.79813966
H        4.28519841      -1.81295933      -0.70200972
