19
Properties=species:S:1:pos:R:3 atomization_energy=-1861.33 smiles=C.C.C.C.C.O.C.H.H.H.H.H.H.H.H.H.H.H.H pbc="F F F"
C        0.96463962      -0.00533000       0.01460999
C        2.49209894       0.01787000      -0.01579000
C        2.97285887       0.13089995      -1.47189944
C        3.07384890       1.13390955       0.83999965
C        4.45763806       0.61753975       1.18122948
O        4.39263803      -0.81584966       1.15260957
C        3.10060889      -1.20802958       0.66166971
H        0.58574979      -0.08794996       1.03956958
H        0.57205975      -0.85678964      -0.55235981
H        0.54915981       0.91110963      -0.41866985
H        4.06493846       0.11480996      -1.54960940
H        2.62117900       1.06286959      -1.92814918
H        2.59078897      -0.70090974      -2.07447923
H        2.49706911       1.24669948       1.76637936
H        3.10241886       2.11081922       0.34856986
H        5.19973773       0.93474966       0.44124984
H        4.79362823       0.94891964       2.16806927
H        3.21701863      -2.06346913      -0.01081000
H        2.51131901      -1.53247938       1.52671942
