13
Properties=species:S:1:pos:R:3 atomization_energy=-1396.32 smiles=C.C.C.C.C.C.O.H.H.H.H.H.H pbc="F F F"
C        0.99999962       0.00000000       0.00000000
C        2.19015911       0.00000000       0.00000000
C        3.59615871       0.00000000       0.00000000
C        4.30562816       1.07280955      -0.37957986
C        5.76822794       1.17510957      -0.38224984
C        6.55378762       0.42017983      -1.42406943
O        6.47683769       1.84900927      -1.43425944
H       -0.06519998       0.00208000      -0.00114000
H        4.10374827      -0.89994965       0.33421988
H        3.77714860       1.96685919      -0.70703975
H        6.20298763       1.25800947       0.60939973
H        6.02753766      -0.10954995      -2.20890909
H        7.49476722      -0.02795999      -1.12959960
