15
Properties=species:S:1:pos:R:3 atomization_energy=-1523.27 smiles=N.C.N.C.C.C.C.H.H.H.H.H.H.H.H pbc="F F F"
N        2.63924894      -1.12656961      -0.34138987
C        2.13265912       0.03700998       0.16836994
N        1.00249960      -0.01323000       0.80426967
C        2.86466882       1.35165944       0.00147000
C        2.15652915       2.48498900       0.12827995
C        4.30044830       1.33317946      -0.22004992
C        4.97925824       2.16958906      -1.01567961
H        3.29517874      -1.00301959      -1.10706958
H        1.95866927      -1.84730931      -0.54069977
H        0.68607973      -0.98183959       0.85877966
H        1.08754961       2.46201903       0.32193986
H        2.61782905       3.46315869       0.06109998
H        4.84377806       0.55746977       0.31745988
H        4.48983805       2.95711895      -1.58024935
H        6.05671776       2.08216915      -1.11572959
