19
Properties=species:S:1:pos:R:3 atomization_energy=-1900.22 smiles=C.C.C.C.C.C.C.H.H.H.H.H.H.H.H.H.H.H.H pbc="F F F"
C        1.14053955       0.26406990       0.21040992
C        2.59793903       0.02505999      -0.19057993
C        2.64747898      -0.66312976      -1.53468943
C        3.16882866      -1.88071923      -1.73660932
C        3.35646874       1.33340945      -0.18498993
C        4.19428826       1.72322932       1.00878958
C        4.86200798       1.34489948      -0.28287990
H        1.08169956       0.74130968       1.19669953
H        0.58270977      -0.67886974       0.25949989
H        0.62859974       0.92198965      -0.50184981
H        3.03783871      -0.63986974       0.56522978
H        2.24012902      -0.11791996      -2.38378903
H        3.59418851      -2.46098902      -0.92348963
H        3.18391882      -2.32156919      -2.72862896
H        2.82977897       2.12187928      -0.71394972
H        4.27933827       1.03162960       1.83842927
H        4.20874835       2.76660885       1.30023950
H        5.32306766       2.13193922      -0.86971967
H        5.38483784       0.39499985      -0.33132986
