13
Properties=species:S:1:pos:R:3 atomization_energy=-1423.32 smiles=C.C.C.C.C.C.O.H.H.H.H.H.H pbc="F F F"
C        0.93998964      -0.02956999       0.00569000
C        2.43318893      -0.00120000       0.00629000
C        3.13901875       1.13798949       0.00000000
C        4.54501836       1.13798949       0.00000000
C        5.73517759       1.13798949       0.00000000
C        7.17498731       1.15091958      -0.00000000
O        7.79578680       2.20394901      -0.00001000
H        0.58699978      -1.06555957      -0.01726999
H        0.53884981       0.47935981      -0.87620963
H        0.54057979       0.43997982       0.90985964
H        2.94255894      -0.96222961       0.01173000
H        2.63139892       2.09897921      -0.00484000
H        7.66161722       0.16316993      -0.00001000
