17
Properties=species:S:1:pos:R:3 atomization_energy=-1659.13 smiles=C.C.C.C.O.C.O.H.H.H.H.H.H.H.H.H.H pbc="F F F"
C        2.29229901      -0.29439989      -1.58439931
C        2.46826903       0.11680995      -0.13200995
C        3.17255888       1.45747947       0.02467999
C        2.41559917       2.64645905      -0.52041978
O        3.00366877       3.74913857       0.16875993
C        3.39238860       3.21024884       1.43533942
O        3.31105871       1.78203929       1.41227950
H        1.83034924      -1.28457944      -1.64173933
H        3.25737876      -0.33995988      -2.09717920
H        1.64818929       0.40752983      -2.12075918
H        3.04368876      -0.65323976       0.39825985
H        1.49065939       0.14593995       0.36641987
H        4.18336837       1.41451944      -0.40153984
H        1.35118947       2.61573898      -0.26368990
H        2.52382909       2.77307888      -1.60068932
H        4.42025821       3.51460853       1.65443941
H        2.72916895       3.59418851       2.21631905
