16
Properties=species:S:1:pos:R:3 atomization_energy=-1619.05 smiles=N.C.C.C.C.C.C.H.H.H.H.H.H.H.H.H pbc="F F F"
N        1.01451958      -0.01943999       0.02414999
C        2.46999901       0.00000000       0.00000000
C        2.95201883       1.36116943       0.00000000
C        3.34929875       2.48306901       0.00000000
C        4.02219833       3.74834852       0.04388998
C        3.88169853       4.68852822      -1.12205957
C        3.23343884       5.01839785       0.19198993
H        0.69305971      -0.97877963      -0.08101997
H        0.66652973       0.49255979      -0.78482970
H        2.82409900      -0.52981981      -0.89068966
H        2.84876892      -0.54110981       0.87298963
H        4.99485787       3.72622841       0.52908979
H        3.23835879       4.40747814      -1.94787921
H        4.76025793       5.25236797      -1.41742945
H        3.67015864       5.80980759       0.78965969
H        2.15258925       4.95369810       0.25812989
