17
Properties=species:S:1:pos:R:3 atomization_energy=-1703.44 smiles=C.C.C.C.C.O.C.H.H.H.H.H.H.H.H.H.H pbc="F F F"
C        1.02734961      -0.05733997      -0.05120998
C        2.52095907       0.06259997      -0.00794000
C        3.42860874      -0.63112974      -1.09031958
C        4.48961802      -0.26656990       0.01112000
C        3.38190878      -0.79437967       0.99256960
O        4.50959811       1.17955955       0.12571995
C        3.10506884       1.48685941       0.11605995
H        0.57178976       0.35551985       0.85505966
H        0.71638970      -1.10425962      -0.13213995
H        0.61318974       0.47974981      -0.91103967
H        3.53044862      -0.10776995      -2.04485920
H        3.25440883      -1.69627934      -1.27700951
H        5.46997794      -0.74186973      -0.00405000
H        3.20314874      -1.87502929       1.00380964
H        3.43891874      -0.42616983       2.02164926
H        2.86962889       2.11811929      -0.74566971
H        2.82730891       1.97869920       1.05286958
