15
Properties=species:S:1:pos:R:3 atomization_energy=-1555.5 smiles=C.C.C.C.C.C.O.H.H.H.H.H.H.H.H pbc="F F F"
C        2.01695918      -1.04748956      -0.24428990
C        3.20868867      -0.48410982      -0.01509000
C        3.46448873       0.92051963      -0.22258992
C        4.65759796       1.49043936       0.00913000
C        4.97886814       2.90819873      -0.18292993
C        4.56800826       3.89486845       0.88128962
O        5.94427744       3.58289870       0.64030974
H        1.86905925      -2.10931911      -0.07405997
H        1.16547960      -0.47797981      -0.60284978
H        4.02678849      -1.10521961       0.34442986
H        2.64169908       1.53429945      -0.58325979
H        5.48118801       0.87655968       0.36886985
H        4.92707816       3.23608882      -1.21663950
H        4.12993849       3.53079861       1.80226932
H        4.21294840       4.86793827       0.56668976
