15
Properties=species:S:1:pos:R:3 atomization_energy=-1499.33 smiles=C.C.C.C.O.C.O.H.H.H.H.H.H.H.H pbc="F F F"
C       -1.01429961       0.00006000      -1.18316953
C       -0.56334978       1.02673961      -0.10484996
C       -1.11804952      -0.00020000       0.92241962
C       -0.56325976      -1.02653957      -0.10482996
O        0.86979966      -1.20763948      -0.02484999
C        1.63698932      -0.00001000      -0.12410995
O        0.86992967       1.20752946      -0.02473999
H       -2.08524923       0.00004000      -1.41418940
H       -0.44406983       0.00002000      -2.11572921
H       -1.07854959       1.99058918      -0.12733995
H       -0.63553974      -0.00117000       1.90347926
H       -2.20572921      -0.00007000       1.04862959
H       -1.07868963      -1.99079924      -0.12749995
H        2.15223927      -0.00003000      -1.08917954
H        2.38519905      -0.00011000       0.67376975
