15
Properties=species:S:1:pos:R:3 atomization_energy=-1533.85 smiles=C.C.C.C.O.C.O.H.H.H.H.H.H.H.H pbc="F F F"
C        0.63910972      -0.13881994       0.27378989
C        2.02187926       0.09897996      -0.24005990
C        2.61803899       1.28543951      -0.43999982
C        2.03876918       2.62516886      -0.08598997
O        3.95086833       1.28657955      -0.91798963
C        4.17712847       2.00169920      -2.06065917
O        3.37566863       2.62668890      -2.73693899
H        0.09835996      -0.79183971      -0.41882983
H        0.05556998       0.77876970       0.38214985
H        0.68422970      -0.63708974       1.24694953
H        2.57872906      -0.80233965      -0.49067980
H        1.35059952       2.56187888       0.76208973
H        1.50023940       3.05220872      -0.93690961
H        2.83237899       3.32042877       0.20786992
H        5.24927792       1.92234922      -2.30143921
