17
Properties=species:S:1:pos:R:3 atomization_energy=-1713.77 smiles=C.C.C.C.C.C.O.H.H.H.H.H.H.H.H.H.H pbc="F F F"
C        1.48448938      -0.20438993      -0.42514985
C        2.85741883       0.04593998       0.08952997
C        3.66310850      -1.05247960       0.71231972
C        4.06998836      -0.47312981      -0.62078977
C        5.05752786       0.64600971      -0.67675975
C        4.23651816       1.88088930      -0.30139988
O        3.12751875       1.40950941       0.48991981
H        1.15705955       0.61808976      -1.07168958
H        0.77682972      -0.28457989       0.40804983
H        1.42850944      -1.13208961      -1.00776959
H        3.24758881      -2.05341916       0.72353969
H        4.24841810      -0.81186970       1.59240932
H        3.96180840      -1.04750956      -1.52679941
H        5.85556786       0.48039982       0.05496998
H        5.51871774       0.75915972      -1.66200934
H        4.81924793       2.61039890       0.26840990
H        3.82744857       2.36755908      -1.19420953
