17
Properties=species:S:1:pos:R:3 atomization_energy=-1697.99 smiles=C.C.O.C.C.C.C.H.H.H.H.H.H.H.H.H.H pbc="F F F"
C        0.90741966      -0.07561997       0.36206987
C        2.36636909       0.08255996      -0.01440000
O        2.98485874       1.16153957       0.74181970
C        4.13782838       0.31920986       1.00313963
C        3.35891863      -0.93869966       0.58712979
C        4.02897848      -1.84836923      -0.37648984
C        5.04235822      -2.62428897       0.02454999
H        0.48164981      -0.96469961      -0.11413995
H        0.32786987       0.79260970       0.03151999
H        0.77831968      -0.17523993       1.44505948
H        2.48642906       0.26826989      -1.08995963
H        4.98468791       0.61029973       0.37192984
H        4.43501808       0.35310987       2.05508921
H        2.94663888      -1.48470942       1.44590945
H        3.68158848      -1.88708920      -1.40520943
H        5.40964806      -2.61455908       1.04707959
H        5.53342765      -3.29689863      -0.67351975
