15
Properties=species:S:1:pos:R:3 atomization_energy=-1527.71 smiles=C.C.C.C.O.C.O.H.H.H.H.H.H.H.H pbc="F F F"
C        0.79571968      -0.05084998      -0.14562994
C        2.23695923      -0.40051985      -0.00336000
C        3.04538872      -0.83459970      -1.19563949
C        3.28685863       0.51618980      -0.57490977
O        4.49919803       0.63431978       0.19436993
C        4.59913836       1.72005929       1.00406960
O        3.77637849       2.61338902       1.13345951
H        0.51698981       0.69999971       0.59978976
H        0.17614993      -0.93785964       0.01549000
H        0.56467975       0.35068985      -1.13719957
H        2.44322894      -0.87283968       0.95028961
H        2.56647887      -0.86373967      -2.16755906
H        3.79367857      -1.60508935      -1.04889959
H        2.96258873       1.38133940      -1.14727957
H        5.55897770       1.67654930       1.54082940
