17
Properties=species:S:1:pos:R:3 atomization_energy=-1728.29 smiles=C.C.O.C.C.C.C.H.H.H.H.H.H.H.H.H.H pbc="F F F"
C        0.97083959      -0.00087000       0.09182996
C        2.49138913      -0.00427000      -0.03594998
O        3.04201883      -0.00737000       1.28197955
C        2.99171887      -1.23687950      -0.82070968
C        3.46611854      -0.66880974      -2.11985911
C        3.46895852       0.66521975      -2.11715917
C        2.99761888       1.23032949      -0.81671970
H        0.47948982       0.00238000      -0.88734967
H        0.62872976       0.87692966       0.65288972
H        0.62519977      -0.87947965       0.64898975
H        4.01128854      -0.00889000       1.19753954
H        2.19465918      -1.96807921      -0.99496959
H        3.81795839      -1.74748934      -0.31176987
H        3.77745846      -1.28109954      -2.95515884
H        3.78348843       1.27939946      -2.95008875
H        3.82594846       1.73581926      -0.30438988
H        2.20272924       1.96570919      -0.98761962
