15
Properties=species:S:1:pos:R:3 atomization_energy=-1584.85 smiles=C.C.C.C.O.C.C.H.H.H.H.H.H.H.H pbc="F F F"
C        0.93434965      -0.08601997      -0.08815997
C        2.45241910       0.00539000       0.00521000
C        3.12328867      -1.22518950      -0.53792980
C        3.94513839      -0.85380968      -1.51924940
O        3.94946840       0.50617981      -1.76706936
C        3.04875885       1.08475958      -0.87607968
C        2.79189901       2.39602911      -0.87489965
H        0.46385983       0.80777966       0.33610987
H        0.56112977      -0.95306961       0.46822982
H        0.59331979      -0.18202992      -1.12567951
H        2.76221880       0.15384995       1.04614956
H        2.97304888      -2.23200900      -0.18188992
H        4.59754817      -1.44339939      -2.13832926
H        3.29236878       3.05546884      -1.57603933
H        2.08254916       2.83307896      -0.18193994
