15
Properties=species:S:1:pos:R:3 atomization_energy=-1401.12 smiles=C.C.C.C.O.H.H.H.H.H.H.H.H.H.H pbc="F F F"
C        0.99806960      -0.02655999       0.01244999
C        2.52449903       0.01250000      -0.02283999
C        3.04954890      -0.75932972      -1.23554946
C        3.02131884       1.46102939      -0.02623999
O        4.44170839       1.50925936       0.04075998
H        0.61683978       0.48968981       0.89969965
H        0.63577976      -1.05940963       0.04584998
H        0.56751981       0.45521982      -0.87166968
H        2.90857874      -0.48827981       0.87566964
H        2.71977895      -0.29758989      -2.17196905
H        2.68818884      -1.79326929      -1.22261951
H        4.14354847      -0.79167966      -1.23956948
H        2.62457891       2.01407920       0.83143969
H        2.70953884       1.98301924      -0.93636963
H        4.71116839       1.05296957       0.85635967
