12
Properties=species:S:1:pos:R:3 atomization_energy=-1248.98 smiles=N.C.C.N.N.C.C.H.H.H.H.H pbc="F F F"
N        1.71497935      -0.69664970       0.36090987
C        2.29077922       0.35382987      -0.12950995
C        2.04413917       0.50134981      -1.56059943
N        1.88801930       0.67893970      -2.69791898
N        3.05247872       1.23638947       0.61418973
C        4.23057828       1.86189923      -0.00294000
C        3.00911887       2.66926904       0.29014988
H        1.94123924      -0.71858971       1.36201940
H        4.45422806       1.58209932      -1.02311960
H        5.07215803       1.93146923       0.67332975
H        3.00308891       3.29903866       1.16980960
H        2.35834899       2.96746882      -0.52019981
