15
Properties=species:S:1:pos:R:3 atomization_energy=-1615.95 smiles=C.C.C.C.C.C.C.H.H.H.H.H.H.H.H pbc="F F F"
C        0.77769970       0.01882999      -0.15155994
C        2.27046908      -0.01458999      -0.21145992
C        3.06115892       0.88498962       0.39194983
C        4.50372838       0.83179964       0.31961987
C        5.29881812       1.72815937       0.92057962
C        6.71374747       1.64233937       0.82635970
C        7.90957709       1.57363941       0.74941973
H        0.40235985      -0.90634965       0.29623989
H        0.36645987       0.10396996      -1.16200953
H        0.40503983       0.86047968       0.44073981
H        2.70534888      -0.82934970      -0.78632967
H        2.61624894       1.69645938       0.96475961
H        4.94649807       0.01915999      -0.25384990
H        4.88401783       2.54859894       1.49876944
H        8.97074660       1.51173940       0.68048971
