15
Properties=species:S:1:pos:R:3 atomization_energy=-1605.4 smiles=C.C.C.C.O.C.C.H.H.H.H.H.H.H.H pbc="F F F"
C        0.98353961       0.01837999      -0.13070995
C        2.50082910      -0.01602999       0.02504999
C        2.98529880      -1.31735942       0.67447975
C        3.52464853      -0.84495967       1.99327916
O        3.93565856      -1.56652934       2.88901878
C        3.53922849       0.62067976       2.08366914
C        2.97367895       1.06354963       0.95696963
H        0.64638973      -0.78736966      -0.79048967
H        0.65732974       0.96881962      -0.56564978
H        0.47605982      -0.10070996       0.83294964
H        2.96674892       0.10665996      -0.96013961
H        3.80040850      -1.76577931       0.09837996
H        2.18513923      -2.04598913       0.82644965
H        3.94271853       1.17332949       2.91177881
H        2.84849893       2.11484920       0.73186971
