18
Properties=species:S:1:pos:R:3 atomization_energy=-1775.27 smiles=N.C.C.C.C.C.C.H.H.H.H.H.H.H.H.H.H.H pbc="F F F"
N        1.93143920      -0.73093969      -1.13076954
C        2.68994885      -0.35308987       0.05106998
C        2.93175890       1.12015951       0.03054999
C        4.14937834       1.69009937       0.02513999
C        4.38317813       3.17265880      -0.00114000
C        5.15126792       3.62070852       1.20798946
C        6.35689758       4.20327831       1.16537955
H        1.78900931      -1.73904936      -1.12347956
H        2.49617914      -0.53362977      -1.95603923
H        3.62814851      -0.91747967       0.08410996
H        2.11707918      -0.61016978       0.94805963
H        2.04299914       1.74760932       0.02717999
H        5.03843800       1.06271958       0.02456999
H        3.43374873       3.72014848      -0.03320998
H        4.92312816       3.42288864      -0.92207967
H        4.67541810       3.46377867       2.17414919
H        6.86944746       4.38750814       0.22625992
H        6.85752733       4.51007804       2.07869922
