15
Properties=species:S:1:pos:R:3 atomization_energy=-1513.64 smiles=C.C.C.O.C.C.O.H.H.H.H.H.H.H.H pbc="F F F"
C        1.00964959      -0.01544999       0.10677995
C        2.49848898      -0.03901998       0.02516999
C        3.21040882      -0.66219973      -1.14613954
O        2.37938913      -1.16316950      -2.20359903
C        3.21803881       0.83624969      -0.97411964
C        4.47896812       1.50908941      -0.59914978
O        5.38038773       1.65107936      -1.41302943
H        0.68773976       0.73993971       0.83071967
H        0.63541975      -0.98792961       0.44164982
H        0.54065978       0.22015992      -0.85406964
H        2.94225891      -0.19239992       1.00272959
H        4.12842828      -1.20406950      -0.93601964
H        2.87082898      -1.19924947      -3.04368876
H        2.61705893       1.40405943      -1.67683936
H        4.55496828       1.88271921       0.43554984
