19
Properties=species:S:1:pos:R:3 atomization_energy=-1850.96 smiles=C.C.C.C.C.C.O.H.H.H.H.H.H.H.H.H.H.H.H pbc="F F F"
C        0.94585962      -0.12802995       0.15993993
C        2.45077894      -0.05885998       0.05194998
C        3.08623887      -1.42929949       0.05284998
C        3.15105874       1.09964952      -0.03413999
C        2.51008889       2.46431904      -0.13221995
C        4.66061837       1.17533957      -0.03075999
O        5.11819789       1.39658941      -1.35534953
H        0.48731982       0.81260966       0.47458980
H        0.65606972      -0.87112963       0.91189961
H        0.51177980      -0.42480983      -0.80031968
H        2.52721891      -2.10321913      -0.60667979
H        3.07409871      -1.85014930       1.06357953
H        4.11528838      -1.43302946      -0.31335988
H        1.45950947       2.43176906      -0.43042984
H        3.01830878       3.07179871      -0.89027962
H        2.58358896       2.98483880       0.82830965
H        5.14296773       0.27651989       0.36203987
H        5.00198824       2.00543925       0.59802975
H        4.62419839       0.78135970      -1.92356924
