15
Properties=species:S:1:pos:R:3 atomization_energy=-1565.33 smiles=C.C.C.C.C.C.O.H.H.H.H.H.H.H.H pbc="F F F"
C        1.00077958      -0.05378998       0.00207000
C        2.51999896       0.00000000       0.00000000
C        3.00201878       1.36116943       0.00000000
C        3.39929870       2.48306901       0.00000000
C        3.88131852       3.84423844       0.00000000
C        2.77293884       4.81527825      -0.30903987
O        2.61691889       5.87912752       0.28536991
H        0.65734973      -1.09303958       0.00187000
H        0.58574979       0.44179983      -0.88233964
H        0.58821974       0.44061983       0.88827964
H        2.89611888      -0.53298979      -0.88045964
H        2.89857886      -0.53390979       0.87884964
H        4.65554802       3.97792833      -0.76242968
H        4.31358820       4.10532836       0.97128962
H        2.14592922       4.56818842      -1.18355951
