17
Properties=species:S:1:pos:R:3 atomization_energy=-1670.72 smiles=C.C.C.C.O.C.O.H.H.H.H.H.H.H.H.H.H pbc="F F F"
C        0.94898960      -0.14891995       0.07359997
C        2.45627900      -0.09023997      -0.15325994
C        2.90626890      -1.15515950      -1.14562958
C        2.87297884       1.28368947      -0.66019975
O        2.16122907       1.96484925      -1.40263943
C        4.26006824       1.77432931      -0.25801989
O        4.51282846       3.08800873      -0.73358973
H        0.63033976       0.63697973       0.76692969
H        0.65776974      -1.11473957       0.49915980
H        0.39498986      -0.00972999      -0.86110969
H        2.95019876      -0.25780991       0.81134971
H        2.44591904      -1.00249960      -2.12820926
H        2.63628884      -2.15607925      -0.79385968
H        3.99201851      -1.12815955      -1.28557943
H        5.01423792       1.10412954      -0.67775974
H        4.33663815       1.78508934       0.83224968
H        3.81005840       3.28096871      -1.38840947
