15
Properties=species:S:1:pos:R:3 atomization_energy=-1510.44 smiles=C.C.C.O.C.C.O.H.H.H.H.H.H.H.H pbc="F F F"
C        0.88905966       0.88755968      -0.55473979
C        2.28644922       0.39785984      -0.21229991
C        3.00620874       1.37841942       0.65534976
O        4.42933810       1.39059945       0.48501982
C        3.71771854       2.56779908       0.06329998
C        3.96535845       3.76130851       0.89031968
O        3.14615872       4.66865815       0.94509965
H        0.36136987       0.14440994      -1.16035954
H        0.93085966       1.82361932      -1.12155957
H        0.30329987       1.07165955       0.35184985
H        2.84161886       0.21330992      -1.13967961
H        2.21710909      -0.55999977       0.31557988
H        2.60828891       1.44304940       1.65996937
H        3.62106860       2.74734891      -0.99989964
H        4.92065784       3.79646860       1.44035943
