19
Properties=species:S:1:pos:R:3 atomization_energy=-1845.02 smiles=C.C.C.C.C.C.O.H.H.H.H.H.H.H.H.H.H.H.H pbc="F F F"
C        0.92556966      -0.15027993      -0.28263990
C        2.43116901      -0.18989993      -0.07768997
C        3.01013880       1.21423958       0.09620997
C        4.50731805       1.19575947       0.25520990
C        5.07340808       0.54883979       1.48006943
C        5.39079791       1.37804950      -0.96008965
O        5.12156802       2.45797896      -0.05450998
H        0.53012980      -1.16614954      -0.38633985
H        0.66667974       0.40871983      -1.18770948
H        0.42574983       0.32280987       0.56871977
H        2.90286874      -0.68513973      -0.93417964
H        2.65288896      -0.80055971       0.80443968
H        2.56171890       1.69530937       0.97503964
H        2.73092896       1.82905933      -0.77019971
H        6.12449746       0.81857969       1.63462939
H        5.01985784      -0.54106981       1.39552950
H        4.51658819       0.85333965       2.37290901
H        4.93387798       1.42339948      -1.94064929
H        6.38829768       0.95683962      -0.95116961
