11
Properties=species:S:1:pos:R:3 atomization_energy=-1279.1 smiles=C.C.O.C.O.C.C.H.H.H.H pbc="F F F"
C        1.07523963      -0.01931999      -0.06476997
C        2.39119899       0.03192999       0.14276994
O        3.15045869      -1.09734952       0.40903985
C        4.42681832      -0.62257975       0.56357978
O        5.41012799      -1.29894946       0.81442967
C        4.46083812       0.83034969       0.38570984
C        3.21009870       1.19006953       0.13187995
H        0.54976975      -0.96827963      -0.03065999
H        0.49162979       0.87133964      -0.26997990
H        5.34933786       1.42883950       0.45868981
H        2.86540890       2.19599906      -0.05262998
