19
Properties=species:S:1:pos:R:3 atomization_energy=-1860.2 smiles=C.C.C.C.C.C.O.H.H.H.H.H.H.H.H.H.H.H.H pbc="F F F"
C        1.15601957      -0.30803988       0.39650983
C        2.51407901      -0.09862996      -0.28173990
C        2.81836880      -1.27843947      -1.20862950
C        2.60468889       1.27830952      -0.98115962
C        4.02303835       1.59762942      -1.45456946
C        1.61436933       1.40631943      -2.12808915
O        1.92442919       1.56366942      -3.30455866
H        0.91405963       0.53177980       1.05668956
H        1.16914950      -1.21702948       1.00861957
H        0.34717986      -0.41545985      -0.33354987
H        3.26777860      -0.10994995       0.51735979
H        2.11146923      -1.33122944      -2.04329916
H        2.75470891      -2.22501918      -0.65960974
H        3.83009855      -1.21287952      -1.62061932
H        2.32435896       2.05498916      -0.25673989
H        4.34639833       0.93471963      -2.26398921
H        4.74005830       1.51137945      -0.63134978
H        4.07745838       2.62296903      -1.83899929
H        0.54888981       1.36803952      -1.83998931
