17
Properties=species:S:1:pos:R:3 atomization_energy=-1651.84 smiles=C.C.C.C.O.C.O.H.H.H.H.H.H.H.H.H.H pbc="F F F"
C        0.90963967      -0.40424985       0.07963997
C        2.36922901      -0.09337996      -0.02452999
C        2.95510888       1.12288961      -0.03386998
C        2.22817912       2.43233908       0.11307996
O        2.13798911       3.06632868      -1.15476952
C        4.44542826       1.25432947      -0.18509993
O        4.71229834       1.92871919      -1.40932949
H        0.72813969      -1.03634958       0.95433965
H        0.58991976      -0.95644964      -0.81039968
H        0.27440989       0.47903982       0.16396993
H        2.99811874      -0.97669961      -0.12922994
H        2.76489880       3.09957887       0.79798971
H        1.21785953       2.32644902       0.51473980
H        3.04978887       3.08010874      -1.51067935
H        4.96192813       0.28881987      -0.20148992
H        4.86812802       1.84158934       0.63768972
H        4.45997818       1.30683947      -2.11678925
