11
Properties=species:S:1:pos:R:3 atomization_energy=-1277.49 smiles=C.C.C.C.C.C.C.H.H.H.H pbc="F F F"
C        0.99999962       0.00000000       0.00000000
C        2.19015911       0.00000000       0.00000000
C        3.63415853       0.00000000       0.00000000
C        4.13407848      -0.70737970      -1.15534950
C        4.54612811      -1.29040943      -2.10759922
C        4.11617835       1.36116943       0.00000000
C        4.51345827       2.48306901       0.00000000
H       -0.06585998       0.00282000      -0.00487000
H        3.99022847      -0.50382979       0.90697966
H        4.91223805      -1.80843932      -2.96306892
H        4.86664785       3.48889875      -0.00487000
