12
Properties=species:S:1:pos:R:3 atomization_energy=-1220.23 smiles=C.C.C.N.C.N.H.H.H.H.H.H pbc="F F F"
C        0.48547982       1.46284946       0.33425988
C        1.01327962       0.29758989      -0.43529984
C        0.98393962      -1.08504951       0.15327995
N       -0.46257981      -1.38784942       0.33014987
C       -1.07175960      -0.34296987      -0.14498995
N       -0.38062984       0.75068971      -0.61149976
H        0.73779969       2.46034911       0.00316000
H        0.20668993       1.34930947       1.37354943
H        1.62682932       0.42856985      -1.31224946
H        1.49697941      -1.12054962       1.11902957
H        1.43111943      -1.81569927      -0.52750979
H       -2.16694917      -0.26281990      -0.22919991
