17
Properties=species:S:1:pos:R:3 atomization_energy=-1719.94 smiles=C.C.C.O.C.C.C.H.H.H.H.H.H.H.H.H.H pbc="F F F"
C        2.46997908      -0.42824983      -1.57971933
C        2.50708893       0.13875994      -0.16950994
C        3.46903851       1.31920951      -0.01619000
O        3.49523857       1.70155937       1.37707941
C        3.14175882       3.09158880       1.48733947
C        2.87843879       3.55157859       0.10561996
C        3.06103880       2.54819899      -0.74946970
H        1.81850923      -1.30710947      -1.61420935
H        3.46909857      -0.73485971      -1.90507929
H        2.08208916       0.30216987      -2.29600904
H        2.80387894      -0.65468972       0.52908979
H        1.49464938       0.43289982       0.13591995
H        4.48529811       1.02366962      -0.29837988
H        3.97535834       3.63206848       1.94484922
H        2.25586919       3.18016868       2.12248916
H        2.58772896       4.55737804      -0.15558994
H        2.94891894       2.61371907      -1.82096933
