15
Properties=species:S:1:pos:R:3 atomization_energy=-1586.18 smiles=C.C.C.C.C.C.O.H.H.H.H.H.H.H.H pbc="F F F"
C        0.98537961      -0.18700993       0.16860994
C        2.45120891      -0.28789990      -0.16129993
C        2.99679880      -1.46926940      -0.49744981
C        3.28393865       0.90719963      -0.11657995
C        2.86391889       2.13783923       0.21088991
C        3.81512850       3.26663882       0.21625992
O        3.45688876       4.39876817       0.51569980
H        0.47926982       0.49806979      -0.52003980
H        0.84236967       0.17125994       1.19368947
H        0.48081980      -1.15643958       0.09036996
H        2.39971895      -2.37554915      -0.53905980
H        4.04960832      -1.57633935      -0.74074970
H        4.33235811       0.75902971      -0.37546986
H        1.84501928       2.38226898       0.48305981
H        4.85634819       3.03479888      -0.06205997
