11
Properties=species:S:1:pos:R:3 atomization_energy=-1131.64 smiles=C.C.C.C.O.H.H.H.H.H.H pbc="F F F"
C        0.99193959       0.03646998       0.02453999
C        2.48454893      -0.04341998       0.00811000
C        3.18474874      -1.17636958       0.17239994
C        3.22963873       1.22421954      -0.20546992
O        2.66711893       2.30037917      -0.36353986
H        0.65216975       0.69890970       0.82707966
H        0.53480979      -0.94512962       0.18775993
H        0.61802978       0.42289984      -0.92884965
H        2.67937895      -2.12515908       0.33123988
H        4.26942821      -1.20023949       0.15504994
H        4.32973841       1.14178960      -0.21390991
