17
Properties=species:S:1:pos:R:3 atomization_energy=-1725.09 smiles=C.C.C.C.O.C.C.H.H.H.H.H.H.H.H.H.H pbc="F F F"
C        0.95803965       0.05523998      -0.00139000
C        2.47980914       0.02256999       0.00360000
C        3.07429881       1.12766952       0.85473964
C        4.44051839       0.56861978       1.18770948
O        4.25729814      -0.84044969       1.38406949
C        3.12509864      -1.17210960       0.64858974
C        2.69658895      -2.43675916       0.61672976
H        0.55066976      -0.72592971      -0.65173972
H        0.59574975       1.01957958      -0.37322985
H        0.54630979      -0.09520996       1.00280958
H        2.85234899       0.11241995      -1.02477962
H        2.49520892       1.26793946       1.77672936
H        3.12929870       2.09064912       0.33857988
H        5.15094796       0.71667969       0.36579986
H        4.85706784       1.01321957       2.09635912
H        1.80912932      -2.72980886       0.06836998
H        3.24136860      -3.21292885       1.14490955
