13
Properties=species:S:1:pos:R:3 atomization_energy=-1393.27 smiles=C.C.C.C.O.C.O.H.H.H.H.H.H pbc="F F F"
C        0.59990974       0.62239977       0.02249999
C        1.93719929       0.02881999      -0.27647990
C        3.09301876       0.51562981       0.20043992
C        4.38519830      -0.13190995      -0.14295994
O        4.49199801      -1.12457960      -0.84924967
C        5.64510794       0.48473980       0.42368982
O        5.61956798       1.47738942       1.13247958
H       -0.04193998      -0.12566995       0.49802980
H        0.12026996       0.94762966      -0.90583963
H        0.67063971       1.48587935       0.69175971
H        1.94051922      -0.84875965      -0.92174962
H        3.12851874       1.38801949       0.84396964
H        6.56919749      -0.04218999       0.13689994
