14
Properties=species:S:1:pos:R:3 atomization_energy=-1455.13 smiles=N.C.C.C.C.C.C.H.H.H.H.H.H.H pbc="F F F"
N        1.00003962      -0.15193994      -0.23554990
C        2.44520898      -0.02669999       0.01055000
C        2.97738872       1.43281939       0.00000000
C        2.42497908       2.20717910       1.13422950
C        1.97600923       2.83936882       2.05177913
C        4.42138815       1.43281939       0.00000000
C        5.61154789       1.43281939       0.00000000
H        0.74760970      -1.13906960      -0.25563991
H        0.77265969       0.22476992      -1.15455958
H        2.96412871      -0.61239976      -0.75902971
H        2.67066898      -0.50191980       0.97388965
H        2.63596888       1.90809919      -0.92967963
H        1.57366944       3.39587860       2.86660899
H        6.67733759       1.43899949       0.00616000
