19
Properties=species:S:1:pos:R:3 atomization_energy=-1901.11 smiles=C.C.C.C.C.C.C.H.H.H.H.H.H.H.H.H.H.H.H pbc="F F F"
C        2.61227902      -0.92113961       1.12302953
C        3.02632887      -0.21954991      -0.16116994
C        3.28716874       1.23972945       0.06943997
C        4.46566825       1.84071930      -0.16202994
C        4.73827836       3.26643872       0.03672999
C        4.96715795       3.77300860       1.43660940
C        6.11588742       3.69072843       0.47412980
H        2.41007917      -1.97894926       0.92711961
H        1.70398932      -0.47631982       1.54297939
H        3.40260878      -0.86141967       1.87848925
H        2.22655915      -0.32028987      -0.90442966
H        3.91130834      -0.71787971      -0.57479975
H        2.45397900       1.83428927       0.43685984
H        5.29061785       1.24087946      -0.54258980
H        4.21892840       3.92549844      -0.65289975
H        4.94472822       3.06774880       2.25993904
H        4.58206816       4.75495796       1.68708931
H        6.50904727       4.61758832       0.07221997
H        6.87067733       2.93375888       0.65348976
