15
Properties=species:S:1:pos:R:3 atomization_energy=-1551.17 smiles=C.C.C.C.O.C.C.H.H.H.H.H.H.H.H pbc="F F F"
C        0.99999962       0.00000000       0.00000000
C        2.44399905       0.00000000       0.00000000
C        3.63415853       0.00000000       0.00000000
C        5.07815797       0.00000000       0.00000000
O        5.56258806      -0.73305971      -1.11808952
C        5.60142789       1.40084940      -0.11564995
C        6.37580728       2.00710918       0.79812970
H        0.60602978       1.02088962       0.01173000
H        0.60592973      -0.52058979       0.87820967
H        0.60598979      -0.50021981      -0.88998963
H        5.46307769      -0.48875981       0.90120966
H        5.04913785      -0.43571984      -1.88681921
H        5.33098783       1.95315924      -1.01187963
H        6.68296760       1.50376939       1.70930934
H        6.72163736       3.02429887       0.64466977
