13
Properties=species:S:1:pos:R:3 atomization_energy=-1446.63 smiles=C.C.C.C.C.C.C.H.H.H.H.H.H pbc="F F F"
C        0.95516963      -0.02902999      -0.00617000
C        2.45601910      -0.04435998      -0.00234000
C        3.13832888      -1.19976952       0.00237000
C        3.17372868       1.18759958      -0.00220000
C        3.77377847       2.22899920      -0.00158000
C        4.53820844       3.55599868      -0.00059000
C        5.13716815       4.59546795       0.00008000
H        0.56392976       0.99415960       0.00967000
H        0.56116977      -0.54663977       0.87491965
H        0.56682981      -0.51784979      -0.90594964
H        2.62540908      -2.15643907       0.00254000
H        4.22427833      -1.22141954       0.00560000
H        5.66887755       5.51815807       0.00073000
