19
Properties=species:S:1:pos:R:3 atomization_energy=-1846.43 smiles=C.C.C.C.O.C.C.H.H.H.H.H.H.H.H.H.H.H.H pbc="F F F"
C        1.12804953       0.18884993       0.15477994
C        2.62266901      -0.03852999      -0.06709998
C        2.86691885      -0.70732974      -1.41879948
C        3.36882868       1.26410945       0.00866000
O        3.68713851       1.68945933       1.34276943
C        4.79057805       1.31442948       0.50905980
C        5.69451794       2.43580913       0.14172994
H        0.94639960       0.65038974       1.13143960
H        0.57930979      -0.75803968       0.12070995
H        0.70854970       0.85430967      -0.60790978
H        2.98303892      -0.71644969       0.71741971
H        2.52034894      -0.07558997      -2.24425918
H        2.34396914      -1.66732937      -1.48045941
H        3.93543852      -0.89358964      -1.57217942
H        3.02774874       2.01229926      -0.69544974
H        5.31400795       0.39578984       0.73633970
H        5.14490816       3.36599879      -0.03622999
H        6.24860761       2.18820909      -0.76873973
H        6.41753732       2.61552905       0.94323960
