15
Properties=species:S:1:pos:R:3 atomization_energy=-1543.15 smiles=C.C.C.C.C.O.O.H.H.H.H.H.H.H.H pbc="F F F"
C        3.01937892      -0.55155979       1.16004955
C        2.65293892       0.24456991      -0.08441997
C        2.86340893       1.72641930       0.09850997
C        1.83608927       2.59044908       0.18519993
C        4.27628809       2.19092922       0.05443998
O        4.51509843       3.29326860       0.79207967
O        5.15485809       1.59960934      -0.55184978
H        2.83587883      -1.61720932       0.99091961
H        2.41857895      -0.23794990       2.02043921
H        4.07645839      -0.42960983       1.41790939
H        1.60471943       0.03747998      -0.33498987
H        3.23960884      -0.11532996      -0.93826962
H        0.80875966       2.23241904       0.17333993
H        1.96436919       3.66799868       0.22073992
H        3.76437862       3.56176848       1.35198949
