17
Properties=species:S:1:pos:R:3 atomization_energy=-1660.99 smiles=C.C.C.O.C.C.O.H.H.H.H.H.H.H.H.H.H pbc="F F F"
C        2.00068924      -0.25903989      -1.35724946
C        2.55123908       0.22681990      -0.02576999
C        3.43087871       1.46441946      -0.17233993
O        2.66442908       2.55777900      -0.69582974
C        3.06206882       3.67613863       0.09316997
C        3.34465863       3.06079884       1.43605945
O        3.97317845       1.82207934       1.10805960
H        1.39821947      -1.16054955      -1.21000950
H        2.81244886      -0.50264979      -2.04946916
H        1.36448947       0.49821980      -1.82473929
H        3.12332879      -0.57642975       0.45496982
H        1.71009927       0.45005983       0.64356974
H        4.26845825       1.26591955      -0.85007965
H        3.96578842       4.10532836      -0.35264987
H        2.27475922       4.43318817       0.11948996
H        3.99624834       3.67135847       2.06612921
H        2.41974901       2.83781901       1.97922923
