12
Properties=species:S:1:pos:R:3 atomization_energy=-1242.71 smiles=C.C.C.N.C.N.H.H.H.H.H.H pbc="F F F"
C        1.08823961       0.05107998       0.15792994
C        2.41097899       0.03171999      -0.01859999
C        3.29151868      -1.20561957      -0.08200997
N        4.67741808      -0.68775975      -0.38669986
C        4.50980805       0.60301979      -0.42938983
N        3.26213874       1.07286961      -0.20735991
H        0.53309980       0.98206960       0.17989993
H        0.52929982      -0.87061967       0.28396987
H        2.97829888      -1.88185926      -0.88338965
H        3.31270870      -1.73163927       0.87765965
H        5.29841792       1.34208952      -0.63544978
H        2.95868895       2.02937918      -0.29520988
