10
Properties=species:S:1:pos:R:3 atomization_energy=-1126.99 smiles=N.C.C.N.N.C.C.H.H.H pbc="F F F"
N        0.97476959       0.17432992      -0.00093000
C        2.13589905       0.12725995      -0.00046000
C        3.55737868      -0.00502000       0.00066000
N        4.28636822       1.06400963      -0.00711000
N        5.65352773       0.63108975      -0.00382000
C        5.66495783      -0.66357973       0.00567000
C        4.30731827      -1.27275949       0.01002999
H        6.57483760      -1.27830952       0.01024999
H        4.13663839      -1.86503924      -0.88932965
H        4.13651827      -1.85179929       0.91794964
