13
Properties=species:S:1:pos:R:3 atomization_energy=-1431.15 smiles=C.C.C.C.C.C.O.H.H.H.H.H.H pbc="F F F"
C        0.99999962       0.00000000       0.00000000
C        2.44399905       0.00000000       0.00000000
C        3.63415853       0.00000000       0.00000000
C        5.04015789       0.00000000       0.00000000
C        5.73078753       1.14500960       0.04155998
C        7.20413712       1.11747950       0.04014998
O        7.86050673       2.15033921       0.07772997
H        0.60599976       1.02087959       0.01169000
H        0.60592973      -0.52052980       0.87824966
H        0.60592973      -0.50027980      -0.88993967
H        5.54022797      -0.96336964      -0.03517998
H        5.26372792       2.12228906       0.07719997
H        7.67821709       0.12267995       0.00358000
