15
Properties=species:S:1:pos:R:3 atomization_energy=-1484.5 smiles=C.C.C.N.C.C.H.H.H.H.H.H.H.H.H pbc="F F F"
C        0.80284968       1.40617939      -0.58978974
C       -0.33097988       0.91925961       0.27240988
C       -1.37062945      -0.02321999      -0.23927991
N       -0.75903967      -1.35026947      -0.02917999
C        0.69381974      -1.19272948      -0.22908991
C        0.96346963       0.18561992       0.27883989
H        0.73315969       1.27334944      -1.66315935
H        1.31459954       2.31247921      -0.28779989
H       -0.62285977       1.47555939       1.15132949
H       -2.31285896       0.05946997       0.31216988
H       -1.57209943       0.13777995      -1.30430948
H       -0.90271962      -1.59319937       0.95083963
H        1.24454949      -1.95425928       0.33021986
H        0.94376962      -1.28708951      -1.29086943
H        1.58490940       0.22666991       1.16118959
