15
Properties=species:S:1:pos:R:3 atomization_energy=-1525.9 smiles=C.C.O.C.C.C.O.H.H.H.H.H.H.H.H pbc="F F F"
C        0.96132960      -0.05579998       0.22747991
C        2.41248893       0.01653999      -0.22187990
O        2.51954905       1.09638953      -1.15069955
C        3.85342860       1.22824952      -1.62996933
C        4.38107823      -0.09599996      -2.06023917
C        3.80734861      -1.22398953      -1.63882931
O        2.75036881      -1.26709945      -0.77200969
H        0.65101975       0.87710963       0.70815972
H        0.80146968      -0.89099965       0.91639962
H        0.30340988      -0.21216991      -0.63538972
H        3.05092890       0.21241991       0.65047976
H        4.48890846       1.66923939      -0.85429964
H        3.82860853       1.91604926      -2.48061913
H        5.22337814      -0.12551995      -2.74241887
H        4.10963844      -2.21660922      -1.94492921
