19
Properties=species:S:1:pos:R:3 atomization_energy=-1842.0 smiles=C.C.C.C.C.O.C.H.H.H.H.H.H.H.H.H.H.H.H pbc="F F F"
C        1.08306959       0.02378999       0.16967993
C        2.59506902      -0.02895999      -0.04472998
C        2.91784889      -0.75844972      -1.34840941
C        3.15939879       1.39013945      -0.09401997
C        3.18296880       2.18283923       1.22349951
O        4.57427818       2.53249894       1.02741958
C        4.68805838       1.54118936      -0.02171999
H        0.83799968       0.51852979       1.11532951
H        0.65819971      -0.98501960       0.19924993
H        0.58602976       0.58017977      -0.63231974
H        3.04571876      -0.58533976       0.78657967
H        2.49662904      -0.23430990      -2.21283915
H        2.51362910      -1.77587925      -1.33568952
H        3.99986854      -0.82942969      -1.50047937
H        2.72974881       1.97873920      -0.91651961
H        3.05105885       1.60436932       2.14309907
H        2.53916907       3.06617879       1.24573948
H        5.15734809       1.94986922      -0.92053962
H        5.24855777       0.66758972       0.32495986
