15
Properties=species:S:1:pos:R:3 atomization_energy=-1608.07 smiles=C.C.C.C.C.C.C.H.H.H.H.H.H.H.H pbc="F F F"
C        1.19398949      -0.54226978      -0.52808980
C        2.44723899      -0.27270991      -0.14566993
C        3.03411884       1.04128959      -0.25007990
C        4.28900811       1.31004951       0.14295994
C        4.92652808       2.66519894       0.04874998
C        6.12512779       2.59296887      -0.79705969
C        7.10679731       2.53615901      -1.48789939
H        0.79432971      -1.54712936      -0.43374983
H        0.53843977       0.21758991      -0.94116960
H        3.06012890      -1.07476954       0.26068990
H        2.41801902       1.83282928      -0.67205976
H        4.90653789       0.52128979       0.56844978
H        5.19904785       2.99963879       1.05592960
H        4.22827828       3.40547854      -0.35823986
H        7.97556676       2.48096912      -2.10221914
