17
Properties=species:S:1:pos:R:3 atomization_energy=-1723.94 smiles=C.C.C.C.O.C.C.H.H.H.H.H.H.H.H.H.H pbc="F F F"
C        1.18840957      -0.88925963       0.15341994
C        2.53415903      -0.26256990      -0.20315992
C        3.20608865      -1.02272962      -1.34097952
C        2.35920919       1.19979955      -0.59971973
O        1.34087947       1.61987936      -1.14529953
C        3.51239861       2.10820923      -0.32106989
C        3.45750874       3.40750854      -0.63785973
H        0.69482976      -0.32172986       0.95002964
H        1.32007942      -1.91877923       0.50241979
H        0.51156980      -0.90770965      -0.70786973
H        3.16938884      -0.30649987       0.68985972
H        2.60835905      -0.97540962      -2.25804908
H        3.34571868      -2.07622915      -1.07801956
H        4.18979827      -0.59890975      -1.56898932
H        4.39092824       1.67868933       0.14432995
H        2.57742904       3.84147844      -1.10596954
H        4.29414809       4.06727832      -0.43560983
