17
Properties=species:S:1:pos:R:3 atomization_energy=-1716.77 smiles=C.C.C.C.C.C.O.H.H.H.H.H.H.H.H.H.H pbc="F F F"
C        1.76186932      -0.56371976      -1.17409948
C        2.46040891      -0.06730997      -0.14535995
C        3.04864883       1.31328944      -0.11582995
C        4.56588817       1.27095949       0.06971997
C        5.15785780       2.67688894       0.08602997
C        6.65278727       2.67623894       0.29453988
O        7.33498703       1.67125931       0.46090982
H        1.35786944      -1.57099939      -1.13549961
H        1.57718933       0.01522999      -2.07357916
H        2.61362899      -0.68873974       0.73536974
H        2.59035900       1.86738933       0.71213975
H        2.80475882       1.85676921      -1.03693959
H        5.02661779       0.68720973      -0.73802969
H        4.81312788       0.75556967       1.00703960
H        4.71405809       3.27073869       0.89229966
H        4.95833796       3.18582872      -0.86313969
H        7.12201743       3.67541848       0.29515988
