15
Properties=species:S:1:pos:R:3 atomization_energy=-1513.75 smiles=C.O.C.O.C.C.C.H.H.H.H.H.H.H.H pbc="F F F"
C        2.33399902      -0.29902989      -1.64241936
O        2.16648917       0.53225979      -0.50545978
C        3.27490872       1.39465946      -0.30127989
O        3.50642871       1.57824937       1.10520952
C        3.01930877       2.87633888       1.47689939
C        2.80077880       3.59902847       0.20249992
C        2.94138887       2.74881900      -0.81404965
H        1.43308939      -0.90743966      -1.76014930
H        3.18835885      -0.96894963      -1.50420945
H        2.46844894       0.30224988      -2.54688889
H        4.19821831       1.00053961      -0.74045970
H        3.77238863       3.36607878       2.10012921
H        2.09080923       2.76510900       2.04463917
H        2.53136900       4.64076797       0.12471995
H        2.80591878       2.98518878      -1.85694925
