17
Properties=species:S:1:pos:R:3 atomization_energy=-1762.72 smiles=C.C.C.C.C.C.C.H.H.H.H.H.H.H.H.H.H pbc="F F F"
C        0.99999962       0.00000000       0.00000000
C        2.44399905       0.00000000       0.00000000
C        3.63415853       0.00000000       0.00000000
C        5.04015789       0.00000000       0.00000000
C        5.78607785       1.12070959       0.00103000
C        5.23344817       2.52224899       0.00285000
C        7.28886693       1.04651960       0.00075000
H        0.60618976       1.02095958       0.01166999
H        0.60590973      -0.52044981       0.87827963
H        0.60590973      -0.50023981      -0.88994963
H        5.52518802      -0.97253961      -0.00118000
H        4.14141829       2.56085896       0.00056000
H        5.58162796       3.06434888      -0.88384965
H        5.57790759       3.06069891       0.89290967
H        7.65378688       0.01330999       0.00179000
H        7.69306678       1.54285941       0.88838966
H        7.69243696       1.54065933      -0.88889962
