17
Properties=species:S:1:pos:R:3 atomization_energy=-1621.45 smiles=C.C.C.N.C.C.H.H.H.H.H.H.H.H.H.H.H pbc="F F F"
C        1.11945954       0.01137000       0.30621988
C        2.50762892       0.07264997      -0.33727987
C        2.60094909      -0.81266966      -1.59821938
N        2.38882909      -2.23093912      -1.30985950
C        2.83842889       1.50726935      -0.68856973
C        3.87816841       2.18501912      -0.18544993
H        1.06295955       0.67137973       1.17939958
H        0.88643964      -1.00235961       0.64790977
H        0.33772987       0.31817987      -0.39754985
H        3.23576861      -0.29423989       0.39941985
H        3.58918856      -0.69737976      -2.05979923
H        1.85986922      -0.49301979      -2.34023918
H        3.10182866      -2.55462890      -0.65719972
H        2.52093889      -2.76940897      -2.16513920
H        2.17733916       2.00822915      -1.39433951
H        4.56518820       1.73424926       0.52443980
H        4.06150852       3.21532877      -0.47406981
