13
Properties=species:S:1:pos:R:3 atomization_energy=-1313.03 smiles=C.C.C.N.N.C.O.H.H.H.H.H.H pbc="F F F"
C       -1.46009943       0.58397976       0.28684989
C       -1.35000944      -0.76561971      -0.38910984
C       -0.29385987      -1.47205942       0.38091987
N        0.93922961      -1.09618956       0.46346982
N        1.40535944      -0.06462997      -0.34464986
C        0.79811966       1.06520959      -0.50364981
O       -0.42790984       1.49330937      -0.12475995
H       -2.40791896       1.05032961      -0.00214000
H       -1.44661938       0.52352979       1.38139945
H       -1.07186962      -0.69718975      -1.44442940
H       -2.28094915      -1.33186947      -0.29251990
H       -0.61157974      -2.33457914       0.98960963
H        1.29937943       1.87669922      -1.05404961
