17
Properties=species:S:1:pos:R:3 atomization_energy=-1613.17 smiles=C.C.C.N.C.C.H.H.H.H.H.H.H.H.H.H.H pbc="F F F"
C        1.32205947       0.28719987       0.13713994
C        2.80229884      -0.00040000      -0.12465995
C        2.95066886      -0.84004968      -1.39567951
N        3.51511874       1.27444948      -0.30479988
C        3.95787834       1.88433930       0.94696962
C        4.93712800       1.20639953       0.02477999
H        1.18758949       0.86683968       1.05683957
H        0.76262971      -0.64765977       0.25129990
H        0.86869968       0.84961966      -0.68701973
H        3.19359876      -0.58395976       0.72016974
H        2.55394912      -0.31683987      -2.27316902
H        2.40795908      -1.78651930      -1.29729946
H        4.00127831      -1.08071963      -1.59136934
H        3.70580850       1.40009947       1.88207930
H        3.94636850       2.96712893       0.97011962
H        5.58722770       1.83128930      -0.57479975
H        5.35891787       0.25581989       0.32559986
