15
Properties=species:S:1:pos:R:3 atomization_energy=-1502.54 smiles=O.C.C.C.O.C.C.H.H.H.H.H.H.H.H pbc="F F F"
O       -0.25395990      -0.49881981      -0.29848990
C        1.14152958      -0.32311986      -0.08272997
C        1.60489934       1.06575955      -0.44688982
C        0.79445966       2.02990920      -0.91932963
O        2.98153881       1.21382954      -0.32303987
C        3.53174863       2.40549910       0.07584997
C        4.85043809       2.60995908       0.06327998
H       -0.44807982      -1.42873944      -0.09524997
H        1.67594939      -1.05999958      -0.69120975
H        1.35110948      -0.51796980       0.97377963
H       -0.27179991       1.85598925      -1.02960962
H        1.16586957       2.99919872      -1.23020950
H        2.82959881       3.15097875       0.42130984
H        5.53055763       1.83534931      -0.27532989
H        5.27113788       3.55461867       0.38893983
