13
Properties=species:S:1:pos:R:3 atomization_energy=-1345.16 smiles=C.O.C.C.O.C.C.H.H.H.H.H.H pbc="F F F"
C        1.08072960      -0.01826999       0.70034969
O        2.44125899       0.34005987       0.91363963
C        2.89400889       1.33854944       0.00000000
C        2.37719915       2.70520884       0.42981983
O        1.49273935       3.31976868      -0.16442993
C        4.33800832       1.33854944       0.00000000
C        5.52816805       1.33854944       0.00000000
H        0.82689969      -0.82233968       1.39703945
H        0.93077961      -0.38411984      -0.32007986
H        0.41961985       0.83037965       0.89964963
H        2.52604910       1.12345950      -1.01073960
H        2.80333895       3.10185869       1.36690946
H        6.59419747       1.32909951       0.00235000
