15
Properties=species:S:1:pos:R:3 atomization_energy=-1539.55 smiles=C.C.C.O.C.C.O.H.H.H.H.H.H.H.H pbc="F F F"
C        0.51430980      -0.24748990       0.06276998
C        1.96818923      -0.52633979       0.30264989
C        2.45219906      -1.74464935       0.57264976
O        2.83613898       0.58492978       0.36954985
C        2.92627877       1.35944941      -0.75933969
C        3.86288849       2.50096914      -0.49435980
O        2.35641916       1.18078954      -1.82700926
H        0.19592992       0.63017978       0.63460977
H       -0.11216996      -1.08892961       0.37797986
H        0.31542987      -0.06589997      -0.99693960
H        1.81199934      -2.62051890       0.57792980
H        3.50534873      -1.89175923       0.78820967
H        4.84389817       2.11666914      -0.20347992
H        3.45238868       3.14279867       0.28902987
H        3.98044836       3.09288881      -1.40683949
