15
Properties=species:S:1:pos:R:3 atomization_energy=-1518.24 smiles=O.C.C.C.C.C.O.H.H.H.H.H.H.H.H pbc="F F F"
O        0.95385965       0.67338974       0.88678963
C        1.97030919       0.37703986      -0.05870998
C        3.11501877       1.29684943       0.18475993
C        3.80939856       1.99926925      -0.95375960
C        2.93510885       2.78795885      -0.00796000
C        3.51897865       3.71934860       0.98817961
O        4.70670819       3.69108850       1.29040943
H        0.24664991       0.02020999       0.75067969
H        1.55405939       0.49618980      -1.06425956
H        2.28467911      -0.66325971       0.07116998
H        3.71741851       0.97077960       1.02639959
H        3.44921865       1.84783933      -1.96445927
H        4.88530825       2.12680907      -0.88595964
H        1.97113923       3.11335868      -0.38691986
H        2.81994891       4.43563831       1.45005942
