13
Properties=species:S:1:pos:R:3 atomization_energy=-1456.03 smiles=O.C.C.C.C.C.C.H.H.H.H.H.H pbc="F F F"
O        1.03952958      -0.09833996       0.10982996
C        2.23169914       0.12229995       0.00751000
C        2.90678896       1.41542947       0.25015990
C        4.21531830       1.21071956       0.02722999
C        4.58804841      -0.14722994      -0.39028984
C        4.35710828      -1.32042953       0.51820980
C        3.24921863      -0.88270968      -0.40395985
H        2.39675910       2.31025920       0.55833981
H        4.96075782       1.98982916       0.13869995
H        5.23584784      -0.25031991      -1.25150954
H        4.86742806      -2.24913902       0.28550988
H        4.24106820      -1.14802950       1.58284937
H        3.00808885      -1.49637936      -1.26234956
