12
Properties=species:S:1:pos:R:3 atomization_energy=-1226.73 smiles=C.C.C.O.C.N.O.H.H.H.H.H pbc="F F F"
C        0.83262969      -0.06761997       0.05943998
C        2.25109912       0.40258985      -0.14749993
C        1.11325952       1.35107945      -0.29039988
O        0.92139963       2.36268909       0.67913973
C        0.47832982       3.38854863      -0.06560997
N        0.35923984       3.19090866      -1.33466947
O        0.76305969       1.84065925      -1.58931940
H        0.51143979      -0.28727990       1.06964961
H        0.38881985      -0.69664970      -0.70239969
H        2.76438884       0.09208996      -1.04908959
H        2.88699887       0.50117981       0.72304973
H        0.25942990       4.30704828       0.49106981
