14
Properties=species:S:1:pos:R:3 atomization_energy=-1426.86 smiles=C.C.C.C.N.O.C.H.H.H.H.H.H.H pbc="F F F"
C        1.80735934      -0.22670990       0.10502996
C        0.88268962      -1.30888954       0.68174973
C       -0.19304992      -0.91228965      -0.34652986
C       -1.47694947      -0.24707990       0.15474993
N       -1.41110944       1.03985957       0.26558991
O       -0.09567996       1.47671948      -0.11806995
C        0.61944977       0.34355985      -0.67927972
H        2.60359907      -0.62101977      -0.53595979
H        2.24962904       0.44566983       0.84534964
H        1.25718952      -2.33230916       0.58950978
H        0.59591975      -1.13231961       1.72459936
H       -0.32828987      -1.60460941      -1.18148951
H       -2.37606895      -0.84043965       0.37427986
H        0.81242968       0.50039982      -1.74531929
