15
Properties=species:S:1:pos:R:3 atomization_energy=-1524.47 smiles=O.C.C.C.C.C.O.H.H.H.H.H.H.H.H pbc="F F F"
O        2.11573917      -0.36092987      -1.36896949
C        2.33257916       0.05919998      -0.02682999
C        3.18205864       1.31087942      -0.04632998
C        2.51130892       2.60935904      -0.58906978
C        2.99792874       3.40604855       0.64514977
C        3.28191874       2.04319923       1.30804953
O        3.47490875       1.68317931       2.44809893
H        1.61422941      -1.19427955      -1.32875949
H        2.84307885      -0.74662970       0.51013980
H        1.35913942       0.23412991       0.44292983
H        4.17733840       1.13416958      -0.47528980
H        1.41858942       2.55694908      -0.66556974
H        2.90592876       2.96285873      -1.54664943
H        3.90222845       3.99908833       0.48352980
H        2.23410916       4.00520837       1.14466958
