15
Properties=species:S:1:pos:R:3 atomization_energy=-1587.87 smiles=O.C.C.C.C.C.C.H.H.H.H.H.H.H.H pbc="F F F"
O        1.06432958       0.13309994      -0.22912991
C        2.46832908       0.00352000      -0.07081997
C        2.86190882      -1.29716951       0.65187976
C        3.23040884      -0.85302966       2.04362921
C        3.40209856      -1.63604938       3.11038874
C        3.33223863       0.58306978       2.03668921
C        2.91984887       1.07427963       0.86525965
H        0.73023972      -0.70614972      -0.58251977
H        2.94699895       0.08123996      -1.05120955
H        3.74904849      -1.73199935       0.17267993
H        2.05677920      -2.03788918       0.65670976
H        3.28783868      -2.71359885       3.03824875
H        3.64632847      -1.22632953       4.08603840
H        3.65817845       1.17462951       2.87986874
H        2.86444879       2.12627918       0.62585974
