17
Properties=species:S:1:pos:R:3 atomization_energy=-1646.55 smiles=O.C.C.C.O.C.C.H.H.H.H.H.H.H.H.H.H pbc="F F F"
O        1.18478950       0.28632990      -1.45252949
C        1.68788932       0.13024995      -0.12913995
C        2.89793894       1.01007962       0.10898996
C        3.63084845       0.68524975       1.38629947
O        2.84003876       1.08116954       2.49758891
C        3.71998851       1.50529940      -1.06904957
C        2.83430882       2.46429910      -0.32534987
H        0.44112983      -0.33301985      -1.53967940
H        1.95074923      -0.92387961       0.00883000
H        0.88904963       0.39141984       0.57306977
H        4.59781817       1.19554953       1.45190939
H        3.81890842      -0.39081986       1.46200945
H        2.72514881       2.04401919       2.42377899
H        3.42316873       1.22217956      -2.07344921
H        4.79239786       1.61315940      -0.95391964
H        3.31276876       3.21942865       0.28719987
H        1.93779921       2.81305900      -0.82782965
