17
Properties=species:S:1:pos:R:3 atomization_energy=-1745.35 smiles=C.C.C.C.C.C.C.H.H.H.H.H.H.H.H.H.H pbc="F F F"
C        2.80784887      -1.00782959      -0.73485971
C        2.45811900       0.03814998       0.31894986
C        3.02738892       1.43281939       0.00000000
C        2.54020892       2.43062903       1.02493960
C        1.78510928       3.50197859       0.74432971
C        4.47138809       1.43281939       0.00000000
C        5.66154783       1.43281939       0.00000000
H        2.31113908      -1.95540928      -0.50261980
H        3.88499851      -1.19890958      -0.76862971
H        2.48193908      -0.68886975      -1.72987926
H        2.81717881      -0.31341986       1.29536950
H        1.36417949       0.09859996       0.38873986
H        2.66903892       1.73023934      -0.99434961
H        2.83016883       2.25334916       2.05973917
H        1.46950936       3.72987863      -0.26893989
H        1.47121941       4.17998839       1.53195946
H        6.72708722       1.43608948       0.00106000
