13
Properties=species:S:1:pos:R:3 atomization_energy=-1364.02 smiles=C.C.C.C.O.C.O.H.H.H.H.H.H pbc="F F F"
C        0.99999962       0.00000000       0.00000000
C        2.44399905       0.00000000       0.00000000
C        3.63415853       0.00000000       0.00000000
C        5.07815797       0.00000000       0.00000000
O        5.55951769      -0.70099970      -1.14333955
C        5.61890789       1.42090948      -0.01422999
O        6.08908782       1.99660917       0.96648959
H        0.60599976       1.02087959       0.01178999
H        0.60592973      -0.52063978       0.87817964
H        0.60597976      -0.50017981      -0.89001965
H        5.47540761      -0.50440980       0.88632963
H        4.96708780      -0.49451981      -1.88638924
H        5.51170798       1.95680922      -0.97298964
