13
Properties=species:S:1:pos:R:3 atomization_energy=-1368.06 smiles=C.C.C.O.C.C.O.H.H.H.H.H.H pbc="F F F"
C        0.95144964       0.06236998      -0.02061999
C        2.29186904      -0.03627999      -0.05174998
C        2.83371887      -1.42739944      -0.08092996
O        4.03748835      -1.65704940      -0.10067996
C        3.21075880       1.11440951      -0.04082998
C        3.80589847       1.57592944      -1.34856952
O        2.87670880       2.38789900      -0.62264977
H        0.47905982       1.04148957       0.00521000
H        0.28935989      -0.79714970      -0.02423999
H        2.08986916      -2.24205910      -0.08349997
H        3.86195840       1.13875961       0.82815970
H        3.46381854       1.13277961      -2.27538904
H        4.84522795       1.88043927      -1.35361942
