13
Properties=species:S:1:pos:R:3 atomization_energy=-1325.71 smiles=C.C.C.N.C.N.O.H.H.H.H.H.H pbc="F F F"
C        0.94500964      -0.00055000       0.06191998
C        2.42113910       0.03798999       0.03440999
C        3.31813862       1.08382962      -0.06101998
N        4.61515837       0.62855975      -0.06269998
C        4.51762830      -0.67901975       0.05091998
N        3.21562879      -1.06843955       0.11343995
O        2.77278895      -2.37508915       0.24144990
H        0.52600980       1.01015961       0.08147997
H        0.58434980      -0.53387976       0.94669963
H        0.55952980      -0.50756981      -0.82864967
H        3.09808886       2.14274909      -0.13292995
H        5.33831805      -1.37981948       0.09318996
H        2.20383924      -2.42701892      -0.54400979
