8
Properties=species:S:1:pos:R:3 atomization_energy=-831.06 smiles=C.C.C.O.H.H.H.H pbc="F F F"
C        0.97866962      -0.01411000       0.02378999
C        2.31382918       0.00706000      -0.02773999
C        3.05105885       1.28606946      -0.01283999
O        4.27417810       1.31614949      -0.05967998
H        0.44565983      -0.96037964       0.01228000
H        0.38103985       0.89118965       0.07812997
H        2.91130897      -0.89556962      -0.08198997
H        2.44099909       2.20265909       0.04238998
