17
Properties=species:S:1:pos:R:3 atomization_energy=-1695.8 smiles=C.C.C.O.C.C.C.H.H.H.H.H.H.H.H.H.H pbc="F F F"
C        0.85421965       0.16894994      -0.06409997
C        2.37753904       0.02767999       0.02760999
C        2.74295885      -0.75772969       1.29004948
O        2.79342889      -0.75113968      -1.10106952
C        3.02738892       1.43281939       0.00000000
C        4.47091825       1.41018944       0.02894999
C        5.66068789       1.39153951       0.05281998
H        0.56432977       0.68122973      -0.98906964
H        0.44822983       0.73064969       0.78465969
H        0.37077984      -0.81427965      -0.09285996
H        2.46414896      -0.21203992       2.19866923
H        3.81553853      -0.97676963       1.32848950
H        2.23684922      -1.72970932       1.30210953
H        2.77402890      -0.18218993      -1.88910924
H        2.65200908       2.02588919       0.84314969
H        2.71252896       1.95330926      -0.91387966
H        6.72596737       1.36698944       0.07378997
