15
Properties=species:S:1:pos:R:3 atomization_energy=-1525.8 smiles=C.O.C.C.C.C.O.H.H.H.H.H.H.H.H pbc="F F F"
C        4.45749827      -0.89359967       0.55281981
O        3.27837878      -0.13603995       0.29964989
C        3.41447869       1.22296949       0.19929992
C        4.52937836       1.96205922       0.27230990
C        4.54178801       3.44502869       0.16007994
C        3.24452880       4.20990832       0.13314995
O        5.62863778       4.01774847       0.08855997
H        4.17237833      -1.94760922       0.62065976
H        4.91022798      -0.60362973       1.50684947
H        5.17428810      -0.78794971      -0.26794990
H        2.42664901       1.64130935       0.03778998
H        5.51193760       1.52741939       0.41235983
H        2.59159896       3.88634849       0.94813962
H        2.75217904       4.07625829      -0.83309966
H        3.45274876       5.27427789       0.27956988
