12
Properties=species:S:1:pos:R:3 atomization_energy=-1107.82 smiles=C.C.C.O.H.H.H.H.H.H.H.H pbc="F F F"
C        0.99226958       0.00482000       0.00804000
C        2.51307902      -0.01258000      -0.00101000
C        3.06470871      -0.74218969      -1.21606949
O        2.99691891       1.32774954       0.00028000
H        0.62252972       0.55401977       0.88063968
H        0.58368976      -1.00989959       0.03483999
H        0.59834977       0.51804979      -0.87618963
H        2.87868884      -0.49388980       0.91169964
H        2.74650890      -0.25721989      -2.14555905
H        2.73621883      -1.78577934      -1.23554946
H        4.15986825      -0.72022974      -1.20930953
H        2.67605902       1.76164928      -0.80793970
