13
Properties=species:S:1:pos:R:3 atomization_energy=-1366.13 smiles=O.C.C.C.C.O.C.H.H.H.H.H.H pbc="F F F"
O        1.03776958       0.04838998      -0.14797995
C        2.22836913       0.03238999       0.00407000
C        3.48487861       1.07428960       0.07733997
C        4.05492848       0.04103998      -0.99985958
C        3.50115852      -1.01308962       0.06474998
O        4.20030837      -0.73955970       1.31142951
C        4.23610837       0.70517969       1.36150944
H        3.33257878       2.10608914      -0.22394990
H        5.14037780       0.04843998      -1.13471953
H        3.57064853       0.04476998      -1.98333920
H        3.37676879      -2.05626924      -0.20884991
H        5.27553804       1.04527958       1.35071950
H        3.72252847       1.05153960       2.26202911
