15
Properties=species:S:1:pos:R:3 atomization_energy=-1515.87 smiles=O.C.C.C.C.C.O.H.H.H.H.H.H.H.H pbc="F F F"
O        0.89695965       0.03370999       0.12260995
C        2.33064908       0.03452998       0.02378999
C        3.06295879       1.03802960       0.93917965
C        4.11722831      -0.05648998       1.22863950
C        3.05842869      -1.09450954       0.78428970
C        5.43714763      -0.00066000       0.42274983
O        5.54237783      -0.01561000      -0.80423971
H        0.60608978      -0.68011973      -0.47100982
H        2.64484893       0.11582995      -1.02429962
H        2.48888903       1.34364943       1.82218923
H        3.43577873       1.93614921       0.43811983
H        4.34397847      -0.13453995       2.30102917
H        3.42675864      -1.91269919       0.15855993
H        2.48258908      -1.52172944       1.61411940
H        6.34753761       0.04965998       1.04303958
