15
Properties=species:S:1:pos:R:3 atomization_energy=-1524.73 smiles=O.C.C.O.C.C.C.H.H.H.H.H.H.H.H pbc="F F F"
O        1.03338961       0.05733997      -0.12481995
C        2.44329908      -0.02830999       0.01661999
C        2.98352895       1.07014960       0.91773963
O        4.22792830       0.59015979       1.44814940
C        4.11136842      -0.79164970       1.43909941
C        5.05375804      -1.56295936       1.98887926
C        2.88373875      -1.28063955       0.74408968
H        0.74356969      -0.71517970      -0.64006978
H        2.90806878       0.02985999      -0.97533960
H        2.30298903       1.29869952       1.74725934
H        3.15702864       1.99803926       0.36308986
H        4.97781794      -2.64402885       1.98243926
H        5.91922750      -1.11681953       2.46783905
H        3.08864889      -2.09478912       0.04247999
H        2.12945905      -1.61727934       1.46275938
