21
Properties=species:S:1:pos:R:3 atomization_energy=-1983.95 smiles=C.O.C.C.C.C.C.H.H.H.H.H.H.H.H.H.H.H.H.H.H pbc="F F F"
C        1.50323936      -0.41697983       0.72091974
O        2.83482888       0.06102998       0.85098968
C        3.03678876       1.37203947       0.31036987
C        2.34864913       2.43022908       1.17448959
C        4.55933815       1.63055941       0.19152993
C        5.29102815       1.55088935       1.53539936
C        5.19941777       0.64081977      -0.78982970
H        1.48958938      -1.46979942       1.01545958
H        1.15934958      -0.34256986      -0.31508989
H        0.82891966       0.12935995       1.38578951
H        2.60948899       1.41109947      -0.70021974
H        2.57155906       2.28710906       2.23632916
H        1.26058955       2.36230908       1.07337957
H        2.64406897       3.44102873       0.87714962
H        4.70603800       2.63961886      -0.21469991
H        5.17442789       0.56782980       2.00185918
H        4.92098789       2.30722920       2.23473923
H        6.36289751       1.73230934       1.40112949
H        5.12709812      -0.39008984      -0.42959983
H        6.26078764       0.87201967      -0.93358963
H        4.71275808       0.69515974      -1.76871935
