17
Properties=species:S:1:pos:R:3 atomization_energy=-1646.55 smiles=C.O.C.C.C.C.O.H.H.H.H.H.H.H.H.H.H pbc="F F F"
C        3.17800872      -1.23531946       0.67426975
O        2.42605905      -0.12749995       0.19407992
C        3.09306872       1.04846962       0.00088000
C        4.39149851       1.32660951       0.18982992
C        4.98501796       2.68793903      -0.06765998
C        6.04367778       2.65393891      -1.17009953
O        5.44963803       2.43253892      -2.44497910
H        2.49768909      -2.08602919       0.77472969
H        3.60166862      -1.02266957       1.66118940
H        3.96328832      -1.51258937      -0.03649998
H        2.38646904       1.79266925      -0.35563987
H        5.07927781       0.56941980       0.55392982
H        5.44378797       3.04066886       0.86305964
H        4.19817844       3.40170871      -0.33967985
H        6.79317732       1.87546922      -0.99243959
H        6.56167752       3.61709867      -1.21471952
H        4.93157823       1.61019930      -2.38489903
