11
Properties=species:S:1:pos:R:3 atomization_energy=-1229.43 smiles=O.C.C.C.C.C.O.H.H.H.H pbc="F F F"
O        1.27637943      -0.40974985       0.51295979
C        2.19051918       0.03780999      -0.17431993
C        2.99708873       1.25076945       0.20305992
C        4.43631809       0.97605963       0.11620995
C        5.61847792       0.77113971       0.04301998
C        7.03947735       0.53833978      -0.04830998
O        7.73079686       1.19169959      -0.81545968
H        2.42275907      -0.40830986      -1.15716957
H        2.72514881       1.55561943       1.21820951
H        2.72071888       2.05980920      -0.48156982
H        7.43916703      -0.25248989       0.60558978
