17
Properties=species:S:1:pos:R:3 atomization_energy=-1635.08 smiles=C.O.C.C.C.C.O.H.H.H.H.H.H.H.H.H.H pbc="F F F"
C        1.64473929      -0.44995981      -0.84251968
O        1.61088931       0.90065965      -0.40356984
C        2.92020894       1.43837938      -0.13617994
C        3.41096876       2.47426896      -1.11116958
C        2.92874884       2.89355898       0.25280990
C        3.88292839       3.37791867       1.28881949
O        3.96406853       4.79438825       1.22395951
H        0.62501973      -0.76165969      -1.08361955
H        2.03052918      -1.09378951      -0.04641998
H        2.26523901      -0.54563979      -1.73852930
H        3.65634855       0.79463970       0.33722988
H        2.78202882       2.70638899      -1.96303927
H        4.47294801       2.49958914      -1.32400948
H        1.96635919       3.38700865       0.33068986
H        4.88943790       2.96769895       1.15364955
H        3.53231865       3.10134872       2.28768917
H        4.15159835       5.02542780       0.29873990
