19
Properties=species:S:1:pos:R:3 atomization_energy=-1849.94 smiles=C.C.C.O.C.C.C.H.H.H.H.H.H.H.H.H.H.H.H pbc="F F F"
C        3.31271879      -1.20161949      -0.78225970
C        2.61476902      -0.19641992       0.11907995
C        3.09277880       1.24598954      -0.08479996
O        2.30257899       2.10601912       0.74212969
C        4.58964818       1.50376939       0.17684993
C        5.06434788       1.10369957       1.55126936
C        5.53592774       1.96721927       2.46141899
H        2.86931877      -2.19397915      -0.65258975
H        4.37773837      -1.28124955      -0.54677976
H        3.21046862      -0.92093963      -1.83515931
H        2.72630903      -0.49511982       1.16832955
H        1.53476942      -0.23638991      -0.07448997
H        2.87721876       1.53961935      -1.11901961
H        2.57475888       1.95030929       1.66409940
H        4.78578830       2.57308895       0.02377999
H        5.19354804       0.96664963      -0.56362980
H        5.04077812       0.04451998       1.79824930
H        5.59734769       3.03183878       2.26072909
H        5.87970788       1.62074940       3.43146866
