12
Properties=species:S:1:pos:R:3 atomization_energy=-1328.78 smiles=C.C.C.C.O.C.N.H.H.H.H.H pbc="F F F"
C        1.05188959       0.04595998       0.00586000
C        2.54370901      -0.03875999       0.00431000
C        3.24214881      -1.18525959      -0.00036000
C        4.61914823      -0.71265974      -0.00018000
O        5.64684802      -1.34644943      -0.00333000
C        4.50378844       0.77882970       0.00506000
N        3.26724870       1.14283955       0.00751000
H        0.59104976      -0.94701965       0.00046000
H        0.70092974       0.58588977      -0.87862967
H        0.70234973       0.57560980       0.89731966
H        2.91749891      -2.20683921      -0.00355000
H        5.41141791       1.39477944       0.00618000
