11
Properties=species:S:1:pos:R:3 atomization_energy=-1224.57 smiles=O.C.C.O.C.C.C.H.H.H.H pbc="F F F"
O        1.04905957      -0.29511989      -0.82438968
C        2.08739922      -0.05244998      -0.27001990
C        3.29480883      -0.77556970       0.50159981
O        3.24593882       0.49725981       1.29393955
C        3.15043876       1.13191954      -0.06209997
C        4.33831818       0.65788972      -0.82261971
C        4.43573823      -0.62864977      -0.44253982
H        3.12203888      -1.68203928       1.07322956
H        2.83044891       2.16917902      -0.06420997
H        4.96247821       1.21825947      -1.49838943
H        5.15876821      -1.37227944      -0.73320972
