15
Properties=species:S:1:pos:R:3 atomization_energy=-1521.01 smiles=O.C.C.C.O.C.C.H.H.H.H.H.H.H.H pbc="F F F"
O        2.35149896      -0.42543983      -1.47027948
C        2.35972899       0.09601996      -0.14423994
C        3.32085875       1.27845953      -0.06053998
C        3.50369873       1.77142926       1.37956942
O        3.43540856       3.21518872       1.38632950
C        2.92955883       3.52509869       0.14395995
C        2.81970894       2.51844889      -0.71357974
H        1.69723933      -1.14494955      -1.49102944
H        2.68145891      -0.70633972       0.52816979
H        1.33683952       0.38616984       0.12069995
H        4.28594834       1.01021960      -0.50791980
H        4.47519829       1.46660945       1.78376927
H        2.72423890       1.39739940       2.05464915
H        2.70733902       4.56781800      -0.01147000
H        2.47876904       2.58621900      -1.73566925
