15
Properties=species:S:1:pos:R:3 atomization_energy=-1478.02 smiles=C.C.C.C.O.N.N.H.H.H.H.H.H.H.H pbc="F F F"
C        1.00881961      -0.03957998       0.07213997
C        2.52814900      -0.00764000       0.03130999
C        3.11932884       1.17290949       0.80130970
C        4.39539803       0.59612975       1.33172943
O        5.33241804       1.21601952       1.80434928
N        4.29126849      -0.77519972       1.23792945
N        3.09961874      -1.21127949       0.65808976
H        0.62124978      -0.89743965      -0.48818979
H        0.59350974       0.86973966      -0.37567986
H        0.63298974      -0.11022996       1.09901958
H        2.86447881       0.04221998      -1.01236959
H        2.49865905       1.48468936       1.64784940
H        3.32641861       2.02104922       0.14341995
H        5.00913780      -1.38856944       1.61178937
H        3.29833869      -1.90859931      -0.06359997
