19
Properties=species:S:1:pos:R:3 atomization_energy=-1840.7 smiles=C.C.O.C.C.C.C.H.H.H.H.H.H.H.H.H.H.H.H pbc="F F F"
C        3.00106875       3.60952848       2.43702916
C        4.28088809       3.14219888       1.77239935
O        4.00236838       1.93896927       1.05809959
C        5.13028809       1.39948946       0.33651988
C        6.12290778       0.65916974       1.17724959
C        4.77526810       0.83198965      -1.01392963
C        5.55467797       2.11220919      -0.92088961
H        3.16805880       4.53286810       2.99814877
H        2.62051890       2.84407884       3.12067881
H        2.22070910       3.78609854       1.68933935
H        5.04460800       2.95554895       2.53368893
H        4.64296830       3.91166841       1.08259963
H        6.91676714       0.21125992       0.56980978
H        5.62650760      -0.14504994       1.72924932
H        6.59929758       1.32891947       1.89988921
H        3.73875842       0.88767966      -1.32783949
H        5.29238771      -0.05602998      -1.35778945
H        6.60162761       2.08978917      -1.19795955
H        5.04394790       3.02676869      -1.19601950
