15
Properties=species:S:1:pos:R:3 atomization_energy=-1520.18 smiles=O.C.C.O.C.C.C.H.H.H.H.H.H.H.H pbc="F F F"
O        0.94738963      -0.07081997       0.01019000
C        2.35891901      -0.03200999       0.20216991
C        3.00017878       1.24530951      -0.37883987
O        3.07946883       1.16744954      -1.80811924
C        3.97343835       0.12769995      -2.23000902
C        3.68305857      -1.17597948      -1.54497937
C        2.92045875      -1.25757949      -0.44658983
H        0.69660970       0.71738975      -0.50011980
H        2.53470911      -0.06281998       1.27996948
H        2.38825908       2.11984927      -0.14022994
H        4.00450840       1.40714948       0.02804999
H        5.00852816       0.43787983      -2.03577918
H        3.85443842       0.01258999      -3.31293858
H        4.10443839      -2.07495916      -1.98718927
H        2.69627883      -2.22150925      -0.00023000
