17
Properties=species:S:1:pos:R:3 atomization_energy=-1633.1 smiles=C.O.C.C.C.C.O.H.H.H.H.H.H.H.H.H.H pbc="F F F"
C        1.18025952       0.25080991       0.11714995
O        2.60140909       0.24193991       0.13577995
C        3.13507885       1.56121941       0.04805998
C        4.62423826       1.46419943       0.10195996
C        5.44537766       1.44964938      -1.16319953
C        5.46584779       2.65598885      -0.26679990
O        6.65964715       2.84878886       0.50284980
H        0.82831968      -0.77666968       0.24015990
H        0.81498965       0.63387977      -0.83976965
H        0.78679971       0.85462969       0.94055965
H        2.77993901       2.15564927       0.89722964
H        2.79738898       2.03366919      -0.88205968
H        4.95067820       0.84701970       0.93057964
H        4.93359789       1.53811937      -2.11487923
H        6.31906758       0.81149966      -1.19581953
H        4.96276789       3.54867855      -0.62496977
H        7.03022739       2.01091926       0.82854968
