11
Properties=species:S:1:pos:R:3 atomization_energy=-1232.58 smiles=C.C.O.C.C.C.O.H.H.H.H pbc="F F F"
C        0.99263963       0.02895999      -0.00581000
C        2.49167906      -0.04738998       0.00226000
O        3.11388883      -1.10093957       0.00702999
C        3.21495885       1.20210951       0.00057000
C        3.82795853       2.23521916      -0.00013000
C        4.56533809       3.47110864      -0.00049000
O        3.97985841       4.54395806      -0.00101000
H        0.64740977       1.06601957       0.00962999
H        0.60304975      -0.48300981       0.87824966
H        0.61385975      -0.45403982      -0.91062963
H        5.66270755       3.37728859      -0.00020000
