15
Properties=species:S:1:pos:R:3 atomization_energy=-1585.06 smiles=O.C.C.C.C.C.C.H.H.H.H.H.H.H.H pbc="F F F"
O        2.93450881      -1.12787959      -0.47548980
C        2.32115915       0.03829998       0.07390997
C        3.30814882       1.21097946       0.05999998
C        2.80294885       2.40398915       0.83519968
C        2.70762894       3.47073872       0.02532999
C        3.12340878       3.10157885      -1.30384948
C        3.47668869       1.80866932      -1.31723943
H        2.25643921      -1.82488930      -0.48317982
H        2.02229915      -0.19960992       1.10086955
H        1.41753947       0.25949989      -0.50605980
H        4.28647823       0.89467964       0.44040983
H        2.57143895       2.39561907       1.89030920
H        2.38457907       4.46179799       0.30697987
H        3.14729875       3.77908853      -2.14390906
H        3.83770861       1.25731947      -2.17307906
