15
Properties=species:S:1:pos:R:3 atomization_energy=-1532.12 smiles=C.C.O.C.O.C.C.H.H.H.H.H.H.H.H pbc="F F F"
C        1.02340959      -0.16470994       0.81376969
C        1.92335930       0.49681981      -0.22602992
O        1.11632950       1.08237959      -1.26055953
C        0.74148972       0.24236990      -2.25393911
O        1.00201959      -0.94640963      -2.34867915
C        2.69867900       1.62795939       0.39497986
C        4.03584845       1.68707934       0.45989983
H        1.60483941      -0.55831981       1.65400931
H        0.46110983      -0.99297964       0.36968986
H        0.28059990       0.54173982       1.20255955
H        2.61618889      -0.24146991      -0.64943972
H        0.14323994       0.80448971      -2.98805880
H        2.11612915       2.44958895       0.80653971
H        4.66389817       0.89812965       0.05699998
H        4.53219841       2.53772901       0.91733962
