17
Properties=species:S:1:pos:R:3 atomization_energy=-1713.9 smiles=O.C.C.C.C.C.C.H.H.H.H.H.H.H.H.H.H pbc="F F F"
O        1.00230959       0.06052997       0.06252998
C        2.41586916      -0.00757999      -0.00407000
C        2.97719871      -1.12912951       0.87877968
C        3.77875848      -0.28108989       1.86719932
C        4.50336805       0.78180967       0.98031961
C        3.02201880       1.19692953       0.71262971
C        2.84321889       0.91071965       2.24013911
H        0.65556973      -0.77881967      -0.28507988
H        2.73427891      -0.08557996      -1.04754962
H        3.63323853      -1.79753924       0.31261988
H        2.19987916      -1.71912932       1.37529947
H        4.34150815      -0.77327967       2.65871907
H        5.07279794       0.40481983       0.12534995
H        5.11952818       1.51476939       1.51511937
H        2.82217901       2.20075904       0.34083985
H        3.26562873       1.65883931       2.92151879
H        1.83685926       0.65565974       2.58466893
