14
Properties=species:S:1:pos:R:3 atomization_energy=-1456.06 smiles=C.C.C.C.C.C.H.H.H.H.H.H.H.H pbc="F F F"
C       -1.27073945       0.02601999      -0.48235981
C       -0.36123986      -0.54544978       0.68816973
C       -0.62295976       0.89473964       1.30557946
C       -0.29987990       1.25329945      -0.20801992
C        1.07376955       0.71563971      -0.44447984
C        1.03330962      -0.48547982       0.15376994
H       -1.18155953      -0.46308980      -1.45802943
H       -2.33317920       0.17388994      -0.25753989
H       -0.67253976      -1.43424947       1.23278946
H       -1.63861937       1.10534956       1.65953940
H        0.09213997       1.24498955       2.05736915
H       -0.54814979       2.23895921      -0.59699980
H        1.89004930       1.18479959      -0.96817964
H        1.80813930      -1.22925948       0.23442991
