18
Properties=species:S:1:pos:R:3 atomization_energy=-1721.11 smiles=C.C.C.C.N.C.O.H.H.H.H.H.H.H.H.H.H.H pbc="F F F"
C        0.96632961      -0.00612000       0.05412998
C        2.48203899      -0.01277999       0.01604000
C        3.19797872       1.03914957       0.90171962
C        4.21408843      -0.04256998       1.31757945
N        5.36872800       0.00278000       0.40939983
C        3.19160862      -1.11881951       0.85124965
O        3.70318855      -2.24802901       0.11297996
H        0.56454980      -0.86784964      -0.48883980
H        0.57383976       0.90097967      -0.41691984
H        0.58659977      -0.04579998       1.08056962
H        2.83211884       0.01575999      -1.02547959
H        2.59068905       1.39326949       1.74459926
H        3.58542858       1.91704925       0.37519986
H        4.47854824      -0.06157998       2.37776916
H        5.17492801       0.18651992      -0.57196979
H        5.97495789      -0.81453968       0.46861980
H        2.57619893      -1.47717948       1.68689930
H        4.29342845      -1.85695922      -0.55122981
