16
Properties=species:S:1:pos:R:3 atomization_energy=-1576.49 smiles=C.C.C.N.C.C.O.H.H.H.H.H.H.H.H.H pbc="F F F"
C        0.76926968      -0.32142987      -0.05370998
C        2.23371905      -0.47382981      -0.28369988
C        2.81174889      -0.29999988      -1.66661931
N        3.01384882       0.71259974      -0.62874975
C        4.35918850       0.69608971      -0.04014998
C        5.10747785       1.89798929      -0.56559976
O        6.28143741       1.86076929      -0.93073961
H        0.58201977       0.02051999       0.96903965
H        0.26610990      -1.28419943      -0.18744992
H        0.31280989       0.39827985      -0.74172968
H        2.67740899      -1.21417953       0.37213984
H        2.14851915      -0.01733999      -2.47633909
H        3.64446854      -0.92700965      -1.96244919
H        4.93750802      -0.20738992      -0.26332991
H        4.28912822       0.80730970       1.04701959
H        4.56712812       2.86020886      -0.51735979
