13
Properties=species:S:1:pos:R:3 atomization_energy=-1341.75 smiles=O.C.C.O.C.C.C.H.H.H.H.H.H pbc="F F F"
O        0.84456969       0.08671997       0.05079998
C        2.28738915      -0.00929999       0.00852999
C        3.08072872       0.96499964       0.89175967
O        3.94404857      -0.11077996       1.35198949
C        2.96195892      -1.08369954       0.89245964
C        3.60712856      -2.17260922       0.19319992
C        4.13245826      -3.08517883      -0.38298986
H        0.53146981      -0.66668971      -0.48037983
H        2.63444884       0.00200000      -1.03241958
H        2.52979900       1.41613941       1.72327929
H        3.63922863       1.73487933       0.35303985
H        2.34404913      -1.42056947       1.73380932
H        4.60511811      -3.89826836      -0.88747962
