15
Properties=species:S:1:pos:R:3 atomization_energy=-1544.6 smiles=O.C.C.C.C.O.C.H.H.H.H.H.H.H.H pbc="F F F"
O        1.02811960       0.03709999      -0.02713999
C        2.44228900      -0.02241999       0.01013000
C        2.98320874       1.11968955       0.86217963
C        4.38860830       0.68132972       1.23807946
C        4.22895831      -0.81431971       1.30685954
O        5.06922796      -1.56719941       1.78465924
C        2.93500893      -1.28614945       0.70210970
H        0.70993973      -0.71078971      -0.56282979
H        2.83294901       0.04593998      -1.01223958
H        2.36625907       1.25557952       1.75996926
H        2.97539883       2.07340922       0.32496989
H        5.10913819       0.92690967       0.45268981
H        4.70207791       1.09372958       2.19894906
H        3.10731888      -2.09213914      -0.01521999
H        2.25415914      -1.62145934       1.48996939
