17
Properties=species:S:1:pos:R:3 atomization_energy=-1650.49 smiles=O.C.C.O.C.C.C.H.H.H.H.H.H.H.H.H.H pbc="F F F"
O        2.54680890      -0.91041963       0.81407968
C        2.27169920       0.02801999      -0.22877990
C        2.90102874       1.38171941       0.12395996
O        2.36191897       1.79954931       1.38717948
C        4.43287831       1.28764943       0.22595991
C        5.06916791       2.64140890       0.40420985
C        5.98646772       3.16280880      -0.42089983
H        2.09846912      -1.73976926       0.57076977
H        1.18352948       0.12650995      -0.30057990
H        2.66466904      -0.36215985      -1.17277954
H        2.61189901       2.12427920      -0.62726977
H        2.44300915       1.01684961       1.96779925
H        4.83235805       0.79911972      -0.67084971
H        4.71713805       0.67518975       1.09081957
H        4.74953789       3.21484883       1.27320952
H        6.33983747       2.62912894      -1.29673954
H        6.40605726       4.14556838      -0.22788992
