13
Properties=species:S:1:pos:R:3 atomization_energy=-1389.53 smiles=O.C.C.C.C.C.C.H.H.H.H.H.H pbc="F F F"
O        0.99109958       0.01438999       0.06046998
C        2.41999907       0.00000000       0.00000000
C        2.84269884      -0.77551968      -1.25496951
C        4.27930849      -1.10604953      -1.26104956
C        5.44939781      -1.37718943      -1.27150944
C        2.90201889       1.36116943       0.00000000
C        3.29929881       2.48306901       0.00000000
H        0.75219973       0.60126974       0.79845968
H        2.77017883      -0.52685978       0.89552962
H        2.58453898      -0.20840991      -2.15843905
H        2.26282899      -1.70566934      -1.31480948
H        6.48784741      -1.61626939      -1.28432951
H        3.65737856       3.48693864      -0.00641000
