19
Properties=species:S:1:pos:R:3 atomization_energy=-1848.97 smiles=C.C.C.O.C.C.C.H.H.H.H.H.H.H.H.H.H.H.H pbc="F F F"
C        1.08146956       0.25853990       0.03181998
C        2.59321892       0.00591000       0.04700998
C        2.94323897      -0.88518966       1.23962953
O        2.92632873      -0.73158969      -1.13180952
C        3.34081866       1.32200950      -0.00903000
C        4.03527843       1.95042927       1.17722953
C        4.84953828       1.37240952       0.05222998
H        0.78475967       0.81666967      -0.86365968
H        0.76291971       0.83084968       0.90918964
H        0.52516979      -0.68534974       0.00609000
H        2.67371891      -0.41825984       2.19216917
H        4.01126836      -1.12616954       1.26243952
H        2.41865894      -1.84582926       1.17253957
H        2.78030893      -0.14614995      -1.89330930
H        2.88079884       2.00400916      -0.72037968
H        4.06331849       1.43755943       2.13024910
H        3.99680851       3.03068890       1.26991950
H        5.36043791       2.06028913      -0.61206977
H        5.39655813       0.45427982       0.23141990
