17
Properties=species:S:1:pos:R:3 atomization_energy=-1647.27 smiles=O.C.C.C.C.O.C.H.H.H.H.H.H.H.H.H.H pbc="F F F"
O        2.15724905      -0.38475984      -1.35474949
C        2.33401896       0.02961999      -0.00790000
C        3.15652877       1.30272950      -0.00386000
C        2.46776891       2.58333889      -0.53958976
C        3.14403888       3.36594858       0.60676975
O        4.36840817       4.05376851       0.28347988
C        3.28901858       2.02473919       1.35881946
H        1.63568930      -1.20554955      -1.33603950
H        2.85239895      -0.76609971       0.53580978
H        1.34858945       0.18202992       0.44370982
H        4.13905849       1.13994960      -0.47068980
H        1.37340951       2.57894909      -0.47598980
H        2.75927888       2.87544891      -1.55252938
H        2.46569904       4.06503838       1.10784953
H        4.89902801       3.42079858      -0.22987991
H        4.24124836       1.86871924       1.87385922
H        2.47228892       1.83216931       2.06422916
