13
Properties=species:S:1:pos:R:3 atomization_energy=-1396.28 smiles=C.C.O.C.O.C.C.H.H.H.H.H.H pbc="F F F"
C        1.13343958      -0.32046988       0.72217969
C        2.52926910      -0.76008969       0.39060986
O        2.91706893      -1.91737930       0.49867980
C        3.48047871       0.33075988      -0.08961997
O        3.06790877       1.47365945      -0.23261991
C        4.88717802      -0.07216997      -0.35603984
C        5.78737786       0.82298969      -0.78325969
H        1.15628957       0.38164986       1.55933942
H        0.53681980      -1.19083952       1.00984963
H        0.67053972       0.14284994      -0.15265994
H        5.15590778      -1.10974959      -0.19230993
H        5.52411763       1.86419923      -0.94982961
H        6.81355710       0.52845978      -0.97659962
