13
Properties=species:S:1:pos:R:3 atomization_energy=-1393.65 smiles=C.O.C.C.C.C.O.H.H.H.H.H.H pbc="F F F"
C        3.25867878      -1.01155961       0.53138982
O        2.39395899       0.08970997       0.28043989
C        2.98103895       1.27850949       0.16719993
C        2.47337899       2.53632908      -0.06963997
C        3.58085860       3.41812867      -0.08395997
C        4.69128822       2.63931883       0.14521995
O        4.33609817       1.33714951       0.29909988
H        2.64497888      -1.91421923       0.59995976
H        3.78626861      -0.88754965       1.48348940
H        3.97019842      -1.14735956      -0.29049989
H        1.43019943       2.77648888      -0.21296991
H        3.57186855       4.48729809      -0.24147991
H        5.74954785       2.84692892       0.22452992
