19
Properties=species:S:1:pos:R:3 atomization_energy=-1891.72 smiles=C.C.C.C.C.C.C.H.H.H.H.H.H.H.H.H.H.H.H pbc="F F F"
C        1.01045957      -0.11100996      -0.02974999
C        2.53096905      -0.11669996       0.01134999
C        3.09500890       1.30854953       0.02118999
C        4.63326818       1.34617943      -0.00367000
C        5.12328792       2.78392887      -0.18602993
C        5.20640785       0.78165972       1.23548953
C        5.67351792       0.31839987       2.23942906
H        0.62766977      -1.13639955      -0.02654999
H        0.64408973       0.38537985      -0.93394964
H        0.59659979       0.40887984       0.84018966
H        2.91164886      -0.66158972      -0.86025964
H        2.85581880      -0.66253975       0.90396966
H        2.71869897       1.84183927       0.90420963
H        2.71060898       1.84187927      -0.85799964
H        4.98859803       0.75679973      -0.85831966
H        4.79631808       3.42676874       0.63953975
H        4.74172823       3.21082869      -1.11963959
H        6.21794734       2.82366877      -0.22263991
H        6.08678757      -0.09518996       3.13087880
