13
Properties=species:S:1:pos:R:3 atomization_energy=-1314.5 smiles=C.C.C.C.C.N.H.H.H.H.H.H.H pbc="F F F"
C        5.43404799      -1.92332927      -0.00241000
C        4.62082825      -1.05433960      -0.00132000
C        3.63415853       0.00000000       0.00000000
C        4.42828840       1.26619951       0.11014996
C        4.92872790       1.97675928      -1.12289958
N        3.82409862       2.52479905      -0.34256986
H        6.16060758      -2.70305897      -0.00467000
H        2.95851889      -0.09055996       0.85676965
H        3.02711892      -0.02399999      -0.91159966
H        5.00662811       1.33051950       1.02544963
H        4.66988801       1.57831939      -2.09701922
H        5.87452753       2.50160905      -1.06989954
H        4.14084828       3.30631867       0.23519990
