15
Properties=species:S:1:pos:R:3 atomization_energy=-1510.24 smiles=O.C.C.C.O.C.C.H.H.H.H.H.H.H.H pbc="F F F"
O        0.74588968       0.02961999      -0.01972999
C        2.16169917       0.04040998       0.19183993
C        2.98312875      -0.83567968      -0.70951973
C        2.47224905      -1.40566943      -1.98808921
O        2.60579890      -0.36146985      -2.96841885
C        2.52266913       0.89547966      -2.27673900
C        3.01148877       0.64056977      -0.89220964
H        0.32347987       0.81305970       0.37351984
H        2.51057892       0.14623994       1.21531956
H        3.86405855      -1.32970952      -0.32753988
H        3.06166887      -2.26525920      -2.31799920
H        1.42085939      -1.70263935      -1.92383923
H        3.14760886       1.62172933      -2.80425894
H        1.48537936       1.24513956      -2.29448900
H        3.91598858       1.17348960      -0.63910972
