17
Properties=species:S:1:pos:R:3 atomization_energy=-1635.48 smiles=C.O.C.C.C.O.C.H.H.H.H.H.H.H.H.H.H pbc="F F F"
C        1.14933960       4.18272845      -0.50869981
O        2.16523912       3.26309861      -0.88465964
C        3.15257878       3.12878874       0.13369994
C        4.16802839       2.14556914      -0.35219987
C        5.47736771       2.41904904      -0.44611983
O        6.49877739       1.61474934      -0.86791967
C        6.15806762       0.29561988      -1.27858948
H        0.43433984       4.26114821      -1.33176943
H        1.57629936       5.17262776      -0.32175989
H        0.62125974       3.82573852       0.38046986
H        2.68679900       2.74620888       1.04903957
H        3.60395852       4.10531827       0.34439987
H        3.77278857       1.17539950      -0.63231974
H        5.88870753       3.38705861      -0.17693993
H        7.07777719      -0.20800992      -1.59095943
H        5.47596778       0.31454987      -2.13478905
H        5.72727760      -0.27299990      -0.44783982
