17
Properties=species:S:1:pos:R:3 atomization_energy=-1707.7 smiles=C.C.O.C.C.C.C.H.H.H.H.H.H.H.H.H.H pbc="F F F"
C        2.90012893      -0.16150994       0.68047974
C        4.19461830       0.18975992      -0.02990999
O        4.41148819       1.59119939       0.12156995
C        5.52848801       2.14498903      -0.46274982
C        6.55235741       1.46554940      -1.00566963
C        5.53592774       3.59803858      -0.46052981
C        4.55945826       4.37873811       0.01844999
H        2.65122887      -1.21632952       0.53912977
H        2.07236923       0.45289982       0.30861989
H        2.98677872       0.03842998       1.75449935
H        4.10505837      -0.05899998      -1.09256961
H        5.01405825      -0.37878984       0.42089983
H        6.59743740       0.38347986      -1.02484958
H        7.39955708       1.98073918      -1.44827947
H        6.40761768       4.08400839      -0.89465965
H        3.65804850       3.96522850       0.46233981
H        4.64118836       5.46029801      -0.02703999
