14
Properties=species:S:1:pos:R:3 atomization_energy=-1376.16 smiles=C.C.C.C.N.O.C.H.H.H.H.H.H.H pbc="F F F"
C        2.07834923      -0.11599995      -0.07369997
C        0.81751965      -0.89138962       0.20177992
C       -0.40800983      -1.39499947      -0.45729981
C       -1.54822940      -0.42579982      -0.13230994
N       -1.42016939       0.77852967       0.36542985
O       -0.07685997       1.21539955       0.64210975
C        0.79971970       0.56612978      -0.28540990
H        2.66197894      -0.40025986      -0.94132964
H        2.68234888       0.19715993       0.77045968
H        0.71395975      -1.09686959       1.27015947
H       -0.68306973      -2.38094904      -0.06852998
H       -0.30924987      -1.48048943      -1.54466938
H       -2.56529897      -0.77177969      -0.37772986
H        0.63244975       0.81631969      -1.33242953
