17
Properties=species:S:1:pos:R:3 atomization_energy=-1651.32 smiles=C.C.C.O.C.C.O.H.H.H.H.H.H.H.H.H.H pbc="F F F"
C        1.72525933      -1.33378946      -0.38460986
C        3.13781867      -0.83085964      -0.29613987
C        4.18344836      -1.66787933      -0.39780985
O        3.20627866       0.52968980      -0.09491996
C        4.49883820       1.12495961       0.07219997
C        4.29098840       2.61402894       0.33168988
O        3.58562867       2.80909891       1.55746939
H        1.14206956      -0.97197962       0.46767981
H        1.67389932      -2.42689907      -0.38135983
H        1.25502956      -0.97267959      -1.30375952
H        4.02869839      -2.73212905      -0.55377980
H        5.21472772      -1.34347949      -0.33777986
H        5.09438791       0.99123962      -0.83704965
H        4.99992821       0.67171975       0.93498963
H        3.69994861       3.07339875      -0.46695981
H        5.25137782       3.13161889       0.40730983
H        2.80975901       2.21798922       1.51434938
