14
Properties=species:S:1:pos:R:3 atomization_energy=-1485.01 smiles=C.C.C.C.O.C.N.H.H.H.H.H.H.H pbc="F F F"
C        0.97718963      -0.01403000      -0.00815000
C        2.45811900       0.06910998      -0.00027000
C        3.30320868       1.16384954       0.00464000
C        4.61766806       0.66214977       0.01125000
O        5.76652773       1.34823947       0.01756999
C        4.56775845      -0.70493973       0.01031000
N        3.24462872      -1.06178962       0.00317000
H        0.52806980       0.98422961       0.00055000
H        0.61757974      -0.55536981       0.87263964
H        0.62638976      -0.53612980      -0.90398966
H        2.99162878       2.19964903       0.00348000
H        5.57688767       2.30198904       0.01711999
H        5.35042793      -1.45032941       0.01401999
H        2.90027882      -2.01325925       0.00083000
