17
Properties=species:S:1:pos:R:3 atomization_energy=-1697.08 smiles=C.C.C.O.C.C.C.H.H.H.H.H.H.H.H.H.H pbc="F F F"
C        4.18482835      -0.63815975       2.45468906
C        3.46227856      -1.06444957       1.21034952
C        2.35093903      -1.81084934       1.25933950
O        3.95174846      -0.71191971      -0.04314998
C        5.06119777       0.20371993      -0.06035998
C        6.43691737      -0.40189985      -0.12614995
C        5.83675757       0.21993992      -1.35135942
H        5.21581779      -1.00523959       2.45166891
H        3.70503864      -1.03504957       3.35626865
H        4.19219845       0.45224981       2.54820909
H        1.91748919      -2.13224908       2.19820923
H        1.85258921      -2.11543915       0.34572987
H        4.93633821       1.17102949       0.41700983
H        6.51857732      -1.48210940      -0.09318996
H        7.24291690       0.12337996       0.37117985
H        6.23415760       1.16902952      -1.68968933
H        5.50922807      -0.43739983      -2.14832915
