17
Properties=species:S:1:pos:R:3 atomization_energy=-1689.15 smiles=C.O.C.C.C.C.C.H.H.H.H.H.H.H.H.H.H pbc="F F F"
C        0.63920977       0.91291966       0.56669979
O        1.48882936       1.15258951      -0.54808980
C        2.83555888       1.48137941      -0.15281995
C        3.61449865       2.27819899      -1.15851954
C        3.12107875       2.94221879       0.09813996
C        4.06914835       3.29023860       1.16000956
C        5.11741819       4.11377844       1.03974962
H       -0.33775986       0.59325974       0.19511992
H        0.51140979       1.83139932       1.14835955
H        1.05143956       0.12151995       1.20124957
H        3.39667874       0.73200970       0.39839983
H        3.12403885       2.53367909      -2.09110912
H        4.67131822       2.06288915      -1.26341945
H        2.28963919       3.63270864      -0.00458000
H        3.88096853       2.84801899       2.13619908
H        5.35238804       4.58978798       0.09314996
H        5.76293756       4.32298855       1.88622926
