15
Properties=species:S:1:pos:R:3 atomization_energy=-1530.6 smiles=O.C.C.C.C.C.O.H.H.H.H.H.H.H.H pbc="F F F"
O        1.53943944      -0.36405985      -1.23071946
C        2.11771909       0.10003996      -0.25291990
C        2.79277888       1.44516949      -0.25773990
C        4.27158817       1.29005945       0.08856997
C        5.01440799       2.62274900       0.09110997
C        4.67093822       3.50181861       1.27156949
O        3.91488841       3.17629868       2.18014913
H        2.14583914      -0.44965982       0.70346971
H        2.27066918       2.07620921       0.46774983
H        2.67394903       1.89642925      -1.24881956
H        4.74050796       0.62785978      -0.65015974
H        4.37871843       0.79196966       1.06030957
H        4.80857835       3.18579869      -0.82487965
H        6.09318770       2.43933900       0.13897994
H        5.16828817       4.48751812       1.28054946
