17
Properties=species:S:1:pos:R:3 atomization_energy=-1699.71 smiles=C.O.C.C.C.C.C.H.H.H.H.H.H.H.H.H.H pbc="F F F"
C        4.98864800      -0.70103969       1.29862950
O        3.64846849      -0.42772984       0.90625963
C        3.37433859       0.83361965       0.45773981
C        4.20423843       1.87600921       0.29995989
C        3.75472847       3.21641884      -0.20584992
C        4.02930853       4.29456848       0.80211968
C        4.81454801       5.35677810       0.57922974
H        5.03557807      -1.74111936       1.63463935
H        5.28876776      -0.06195997       2.13553923
H        5.67587772      -0.58766978       0.45395983
H        2.31558919       0.89514967       0.22513992
H        5.26187783       1.78915932       0.52772979
H        2.68067896       3.21358869      -0.42711982
H        4.27180820       3.42368853      -1.15039952
H        3.54168872       4.19441845       1.77027927
H        5.31723779       5.50683798      -0.37097984
H        4.96826821       6.10448760       1.35123943
