17
Properties=species:S:1:pos:R:3 atomization_energy=-1660.53 smiles=C.O.C.C.C.C.O.H.H.H.H.H.H.H.H.H.H pbc="F F F"
C        2.35455897       0.12347995      -0.83168969
O        3.68029857       0.62344972      -0.70823971
C        3.68764847       1.97649925      -0.24802991
C        5.13065801       2.44501897      -0.18038993
C        5.23602801       3.88303840       0.27086991
C        6.61845760       4.48007838       0.27790989
O        4.25525830       4.54853837       0.60194978
H        2.40867898      -0.91400967      -1.17185954
H        1.79479930       0.70462974      -1.57068940
H        1.84296921       0.14886994       0.13507994
H        3.21944883       2.02820925       0.74239969
H        3.11324867       2.60298894      -0.94111964
H        5.59793765       2.34909903      -1.16733953
H        5.69698776       1.81418932       0.51384980
H        7.29914690       3.82853839       0.83192966
H        6.59623731       5.45723774       0.76890967
H        6.96773705       4.60266797      -0.75000968
