17
Properties=species:S:1:pos:R:3 atomization_energy=-1636.56 smiles=C.C.O.C.C.O.C.H.H.H.H.H.H.H.H.H.H pbc="F F F"
C        0.77888969       2.25109912      -0.90880963
C        2.20807917       2.70665898      -0.67884975
O        2.96502878       1.58229942      -0.22901992
C        4.29554853       1.78533928       0.02524999
C        5.00758798       2.91837879      -0.07235997
O        6.33924751       3.11919889       0.17677993
C        7.09891701       1.98506918       0.58055978
H        0.15851993       3.07839869      -1.26420950
H        0.34656985       1.85709926       0.01673999
H        0.74598973       1.44201938      -1.64577940
H        2.21902908       3.49762865       0.08004997
H        2.62196904       3.08770870      -1.61976935
H        4.72205800       0.83957964       0.33729986
H        4.58007827       3.86524855      -0.37931986
H        8.13282666       2.30890897       0.73195973
H        7.09659707       1.21543954      -0.19823992
H        6.72821716       1.58270933       1.52884935
