15
Properties=species:S:1:pos:R:3 atomization_energy=-1512.46 smiles=C.C.C.O.C.C.O.H.H.H.H.H.H.H.H pbc="F F F"
C        0.02469999       0.92849961      -0.29882988
C        1.30341950       0.23077991       0.03700998
C        2.47454905       0.52775978      -0.54620980
O        3.70565862      -0.02764999      -0.33774987
C        3.79128849      -1.07059964       0.62772977
C        5.22389794      -1.53859943       0.64037976
O        5.83238770      -1.84187927       1.66396933
H       -0.70029973       0.20798992      -0.68989971
H        0.16445994       1.71394934      -1.04838957
H       -0.39676983       1.38722944       0.60090979
H        1.22731955      -0.54214979       0.79450969
H        2.56409889       1.30112947      -1.30267955
H        3.16602880      -1.92111923       0.33619986
H        3.52881856      -0.70263972       1.62521932
H        5.68071794      -1.69688935      -0.35171987
