12
Properties=species:S:1:pos:R:3 atomization_energy=-1352.6 smiles=C.C.C.C.N.C.O.H.H.H.H.H pbc="F F F"
C        1.04159958       0.01249000      -0.15184994
C        2.35800910      -0.04130998       0.05363998
C        3.19392881      -1.20985949       0.19626992
C        4.44865809      -0.78199967       0.38699985
N        4.49851825       0.58763976       0.38010985
C        3.24937860       1.15673960       0.17956993
O        2.94978873       2.33132911       0.12036995
H        0.53747977       0.97093964      -0.24057991
H        0.44020983      -0.88449965      -0.23585991
H        2.85846878      -2.23301908       0.15500995
H        5.34090798      -1.37448949       0.53222977
H        5.32963786       1.14793954       0.50347981
