17
Properties=species:S:1:pos:R:3 atomization_energy=-1647.7 smiles=O.C.C.C.O.C.C.H.H.H.H.H.H.H.H.H.H pbc="F F F"
O        1.37349946       2.89479893      -1.53356946
C        2.79293886       2.92069897      -1.41814948
C        3.24234865       1.80655932      -0.48078980
C        4.73444797       1.77560926      -0.31346989
O        5.25348782       2.74968903       0.59832977
C        5.47170792       0.46231981      -0.34847988
C        5.63281790       1.44375946      -1.47322948
H        1.12945956       3.60266860      -2.15460916
H        3.09786882       3.90161857      -1.04247959
H        3.21824875       2.78413881      -2.41888906
H        2.86860897       0.84791964      -0.86030967
H        2.76441887       1.93665918       0.49718982
H        5.19226771       2.43789894       1.51751942
H        4.91338818      -0.44536981      -0.55118981
H        6.31293744       0.32181988       0.31910987
H        6.57128730       1.98231927      -1.55231944
H        5.18530791       1.19630955      -2.42951902
