14
Properties=species:S:1:pos:R:3 atomization_energy=-1488.33 smiles=C.C.C.N.C.C.O.H.H.H.H.H.H.H pbc="F F F"
C        1.01693963      -0.06637997      -0.00628000
C        2.47884903       0.09504996      -0.00024000
C        3.33829862       1.16758959       0.00224000
N        4.63710816       0.72730971       0.00839000
C        4.52375844      -0.58562975       0.00949000
C        5.59164803      -1.60455932       0.01521999
O        3.23418877      -1.04386962       0.00435000
H        0.51421981       0.90564962       0.00261000
H        0.68885973      -0.62713975       0.87429967
H        0.69441972      -0.60835975      -0.90052963
H        3.09532885       2.22082921      -0.00003000
H        5.17870793      -2.61774906       0.02361999
H        6.22307774      -1.48493942       0.90046964
H        6.21986758      -1.49815943      -0.87398968
