16
Properties=species:S:1:pos:R:3 atomization_energy=-1580.87 smiles=C.C.C.C.N.C.O.H.H.H.H.H.H.H.H.H pbc="F F F"
C        0.94722965       0.02590999       0.13550994
C        2.46173895       0.07221997      -0.01214999
C        3.18267887       1.09208955       0.90932962
C        4.15841836      -0.05665998       1.21177948
N        3.10718868      -1.00717958       0.80160966
C        2.92153873       0.03471999      -1.52410943
O        3.08521870      -0.96436963      -2.22569921
H        0.63852973      -0.00649000       1.18658950
H        0.52865978      -0.85557965      -0.36280986
H        0.49078981       0.91355964      -0.31549986
H        2.60103892       1.42294945       1.77810936
H        3.62214858       1.96727919       0.42311984
H        5.04530797      -0.07355997       0.56781976
H        4.47519829      -0.14457995       2.25430903
H        3.43680875      -1.79662933       0.24013990
H        3.12291876       1.03137960      -1.95268928
