16
Properties=species:S:1:pos:R:3 atomization_energy=-1613.21 smiles=C.C.C.C.C.C.N.H.H.H.H.H.H.H.H.H pbc="F F F"
C        1.82842925       0.04314998      -0.44484982
C        0.85473964       0.93263960       0.27946989
C       -0.60774974       1.07896959      -0.05285998
C       -1.38099951       0.05977998       0.88539966
C       -0.47257983      -0.93472966       0.04609998
C       -0.93107963      -0.00163000      -1.14867951
N        0.90854966      -0.54583976       0.50485980
H        1.70921939      -0.18893992      -1.49440941
H        2.86663877       0.08285997      -0.13310994
H        1.15675953       1.52548943       1.13224959
H       -1.02389962       2.07781921      -0.17859994
H       -1.17793959       0.13084995       1.95882925
H       -2.46427891      -0.02029999       0.73749973
H       -0.72295971      -1.99463922       0.03558999
H       -1.98181928      -0.08967996      -1.45301939
H       -0.32743986       0.00611000      -2.05906923
