19
Properties=species:S:1:pos:R:3 atomization_energy=-1762.03 smiles=C.C.C.N.C.C.H.H.H.H.H.H.H.H.H.H.H.H.H pbc="F F F"
C        1.00077958      -0.12914995       0.01509000
C        2.52026895      -0.04547998       0.01575000
C        2.99378874       1.40799946      -0.00905000
N        4.45635823       1.45801946       0.00094000
C        4.93156814       2.84070895      -0.02535999
C        6.45158741       2.86865893      -0.02556999
H        0.67784975      -1.17398959       0.03795998
H        0.58376975       0.33642986      -0.88354963
H        0.58047979       0.37623985       0.89032964
H        2.90796886      -0.58513979      -0.85725968
H        2.90615889      -0.55268979       0.90849964
H        2.59712905       1.93217929       0.86871968
H        2.60391903       1.90378925      -0.90594964
H        4.82208817       0.95344961      -0.80642969
H        4.56742840       3.38219871       0.85478967
H        4.56409813       3.35655857      -0.91982963
H        6.85800727       2.37954910       0.86631963
H        6.80861746       3.90408838      -0.03355999
H        6.85918717       2.36579907      -0.90948966
