21
Properties=species:S:1:pos:R:3 atomization_energy=-2050.89 smiles=C.C.C.C.C.C.C.H.H.H.H.H.H.H.H.H.H.H.H.H.H pbc="F F F"
C        3.20377881       1.02912962      -2.45076910
C        3.21553871       0.16176993      -1.20065949
C        3.80360856       0.86710968       0.02679999
C        5.24264817       1.33062952      -0.12634995
C        6.25829763       0.22765991      -0.26102991
C        5.53082763       2.64783905      -0.10697996
C        6.86781740       3.31031862      -0.20820992
H        2.69555893       0.50473979      -3.26659869
H        4.21907829       1.26093954      -2.78735881
H        2.67445899       1.97056921      -2.27164898
H        3.76091840      -0.76579969      -1.40698950
H        2.18446904      -0.13116995      -0.96880965
H        3.74957864       0.18531993       0.88538963
H        3.15369888       1.71418930       0.28357990
H        6.06671764      -0.36122986      -1.16344959
H        6.20469742      -0.44007984       0.60525973
H        7.28662724       0.58643979      -0.33006988
H        4.70713816       3.35404864      -0.00209000
H        7.70903683       2.61555907      -0.19672992
H        6.99878742       3.99663844       0.63485976
H        6.92105728       3.89487854      -1.13209958
