17
Properties=species:S:1:pos:R:3 atomization_energy=-1647.91 smiles=O.C.C.C.C.C.O.H.H.H.H.H.H.H.H.H.H pbc="F F F"
O        1.68328932       0.20175992       1.40054950
C        2.09407918       0.32087988       0.04621998
C        3.16622864       1.35167950      -0.01282000
C        3.24405870       2.36987901      -1.12426961
C        2.80820894       2.79713892       0.25593990
C        3.68683849       3.60357851       1.15129959
O        3.56126861       3.13692869       2.48822894
H        0.96525960      -0.45383981       1.41692946
H        1.22634946       0.59553974      -0.56200978
H        2.47465907      -0.64684972      -0.29446988
H        4.09856841       0.97557963       0.39518986
H        2.49241890       2.34734911      -1.90482923
H        4.22852834       2.66319896      -1.47128943
H        1.76230925       3.04227873       0.40617983
H        3.38851860       4.65585839       1.13053954
H        4.73996797       3.54122872       0.85933964
H        3.14960884       2.25267922       2.45606906
