12
Properties=species:S:1:pos:R:3 atomization_energy=-1278.85 smiles=C.N.C.C.O.C.C.H.H.H.H.H pbc="F F F"
C        2.54717907       0.12500995       0.76872970
N        1.73627927       0.42695985      -0.41725982
C        2.60649886       1.39978948      -0.76334968
C        2.63164897       2.71728894      -1.09415956
O        3.55338856       3.33285861      -0.26147989
C        3.96667840       2.38840896       0.66225972
C        3.42997864       1.19219958       0.30480988
H        2.95700893      -0.88864962       0.72729974
H        2.03680920       0.29311988       1.72049935
H        1.70756927      -0.37939985      -1.03864958
H        2.02284922       3.38603869      -1.68394930
H        4.48955847       2.78254887       1.52086937
