13
Properties=species:S:1:pos:R:3 atomization_energy=-1300.46 smiles=C.O.C.C.N.N.C.H.H.H.H.H.H pbc="F F F"
C       -0.46267983       1.38245950      -0.20998992
O       -1.55290938       0.47974981      -0.11215996
C       -1.22585956      -0.84666965      -0.50675980
C       -0.23353991      -1.38378941       0.47946982
N        1.01065961      -1.02281958       0.56607975
N        1.52832942      -0.17463993      -0.41108985
C        0.89786962       0.92145962      -0.71130970
H       -0.32167987       1.87407926       0.75665968
H       -0.78527967       2.16487905      -0.90425965
H       -0.85082965      -0.87303965      -1.53215943
H       -2.13375928      -1.45360947      -0.45286982
H       -0.61933975      -2.08037924       1.24168956
H        1.40794949       1.61423938      -1.39944946
