17
Properties=species:S:1:pos:R:3 atomization_energy=-1652.85 smiles=C.O.C.C.C.C.O.H.H.H.H.H.H.H.H.H.H pbc="F F F"
C        2.95805888      -0.04251998       1.25883951
O        2.72020892       0.71168971       0.07519997
C        3.32942867       2.00778921       0.03475999
C        2.92334895       2.61587903      -1.31292949
C        2.83009893       2.91453881       1.16374948
C        4.85787833       1.89738924       0.02948999
O        5.60028786       2.40335909       0.86684965
H        2.51270910      -1.03109957       1.12032959
H        2.47790909       0.42224983       2.12347906
H        4.02787831      -0.17314993       1.43886941
H        3.23327860       1.97035928      -2.14341928
H        3.37525859       3.60153867      -1.46620937
H        1.83414923       2.71485899      -1.38516941
H        3.18748881       2.57598899       2.14201910
H        1.73562926       2.91997882       1.20588956
H        3.18119870       3.94433850       1.03380961
H        5.27810778       1.29535954      -0.79505971
