15
Properties=species:S:1:pos:R:3 atomization_energy=-1593.63 smiles=O.C.C.C.C.C.C.H.H.H.H.H.H.H.H pbc="F F F"
O        1.55677939      -0.39800985      -0.79557970
C        1.96234928       0.36805987       0.07161997
C        3.22957867       1.19468959      -0.03108999
C        3.64520863       1.47187938      -1.48054936
C        3.35963878       2.92791893      -1.65558941
C        3.02674875       3.51983860      -0.50596981
C        3.03347893       2.56292908       0.63834976
H        1.45406946       0.40120985       1.05157960
H        4.00100831       0.62230975       0.49792981
H        3.09746888       0.87968966      -2.21873915
H        4.71674794       1.29126950      -1.61994938
H        3.43808857       3.43563869      -2.60803910
H        2.80150879       4.57324817      -0.40316983
H        3.86998859       2.79562897       1.30646943
H        2.10225913       2.63533907       1.20897949
