15
Properties=species:S:1:pos:R:3 atomization_energy=-1619.03 smiles=C.C.C.C.C.C.C.H.H.H.H.H.H.H.H pbc="F F F"
C        0.99999962       0.00000000       0.00000000
C        2.44399905       0.00000000       0.00000000
C        3.63415853       0.00000000       0.00000000
C        5.04015789       0.00000000       0.00000000
C        5.74028780       1.05286958       0.44448984
C        7.18419740       1.08730952       0.45903982
C        7.88321705       2.13831917       0.90274964
H        0.60599976       1.02087959       0.01189999
H        0.60593976      -0.52068981       0.87815964
H        0.60591977      -0.50010979      -0.89002962
H        5.54257768      -0.88675966      -0.37436985
H        5.21486801       1.93118926       0.81529970
H        7.71976696       0.21425991       0.09045997
H        7.40230699       3.03488871       1.28125952
H        8.96869667       2.12102917       0.89544963
