11
Properties=species:S:1:pos:R:3 atomization_energy=-1222.68 smiles=O.C.C.C.O.C.C.H.H.H.H pbc="F F F"
O        1.65815940      -0.70574971       0.87149968
C        2.36571908      -0.20751993       0.00014000
C        3.00886881       1.15096954       0.09796996
C        2.59962890       1.88209923       1.34981944
O        2.22779911       3.05442874       1.35496952
C        4.47547838       1.01735957       0.03574999
C        5.67248791       0.91068962      -0.01767999
H        2.55481890      -0.75348971      -0.94112960
H        2.65133889       1.73215933      -0.76015971
H        2.71042881       1.32534949       2.29730905
H        6.73380730       0.82286970      -0.06201997
