19
Properties=species:S:1:pos:R:3 atomization_energy=-1839.08 smiles=C.O.C.C.C.C.C.H.H.H.H.H.H.H.H.H.H.H.H pbc="F F F"
C        1.91416927      -0.53037980      -1.29632950
O        2.18326920       0.06103997      -0.03493999
C        3.06451870       1.20279951      -0.05227998
C        2.45531913       2.53950896      -0.53955980
C        3.21228868       3.25451884       0.60317976
C        4.54405798       3.88432857       0.22482991
C        3.29128881       1.88518928       1.31694951
H        1.24928953      -1.38479949      -1.14670956
H        2.84414898      -0.88081966      -1.75419933
H        1.42163947       0.19039993      -1.95552926
H        4.01321837       0.95822965      -0.54924976
H        1.36420951       2.59019902      -0.44352981
H        2.72988885       2.83652884      -1.55593938
H        2.59229892       3.98363833       1.13933959
H        5.19120792       3.18399882      -0.31379988
H        5.07837800       4.21677829       1.12086957
H        4.38601838       4.75834829      -0.41505984
H        4.24266848       1.65340939       1.80430929
H        2.48082907       1.71611939       2.03562917
