21
Properties=species:S:1:pos:R:3 atomization_energy=-1983.22 smiles=C.O.C.C.C.C.C.H.H.H.H.H.H.H.H.H.H.H.H.H.H pbc="F F F"
C        1.76961929      -0.92643964      -0.40433983
O        3.05715871      -0.33998987      -0.26496990
C        2.98189889       1.08497961      -0.18545993
C        4.40064803       1.62890941      -0.04278998
C        4.46473816       3.15299866       0.13978994
C        5.90820769       3.58239858       0.41415984
C        3.92435841       3.90913854      -1.07492951
H        1.89105926      -2.01007925      -0.47111981
H        1.28365944      -0.57170977      -1.31785954
H        1.14894950      -0.69630974       0.46705983
H        2.37671896       1.36956941       0.68316972
H        2.50780908       1.46629945      -1.09602958
H        4.99177791       1.32362947      -0.91610963
H        4.87536791       1.13580960       0.81590965
H        3.86071844       3.42990875       1.01302963
H        6.56478725       3.33061867      -0.42623982
H        6.29855759       3.08721868       1.30974949
H        5.96920776       4.66392795       0.57922974
H        4.45002825       3.61683852      -1.99047916
H        4.04639842       4.99000806      -0.94607965
H        2.85648900       3.71978866      -1.21900953
