15
Properties=species:S:1:pos:R:3 atomization_energy=-1515.24 smiles=C.O.C.C.C.O.C.H.H.H.H.H.H.H.H pbc="F F F"
C        1.82266929      -0.45934981      -1.29110952
O        2.08238918       0.15992993      -0.03801999
C        3.02120882       1.25701944      -0.06039998
C        2.47467900       2.61707886      -0.57928980
C        3.17897869       3.25742873       0.62849976
O        3.53184856       4.38617835       0.89716965
C        3.31856859       1.89447923       1.32712943
H        1.10654952      -1.27011948      -1.13660949
H        2.74654902      -0.87522964      -1.70308938
H        1.39420943       0.26529988      -1.98901917
H        3.95050850       0.95948960      -0.56654978
H        1.38692942       2.72630903      -0.55217977
H        2.86247883       2.93335893      -1.54984936
H        4.31358820       1.69150939       1.72812934
H        2.55867906       1.72214935       2.09419917
