15
Properties=species:S:1:pos:R:3 atomization_energy=-1589.03 smiles=C.C.C.C.C.C.C.H.H.H.H.H.H.H.H pbc="F F F"
C        0.99263963      -0.03136999       0.01141999
C        2.51999896       0.00000000       0.00000000
C        3.05925886      -0.76322970      -1.20856958
C        3.00201878       1.36116943       0.00000000
C        3.39929870       2.48306901       0.00000000
C        3.91104844       3.92707854      -0.00045000
C        4.31196824       5.05730783      -0.00077000
H        0.59606976       0.48822982       0.89121968
H        0.62425977      -1.06253955       0.03738999
H        0.57352977       0.45555983      -0.87686966
H        2.87544891      -0.50641981       0.90590965
H        2.73104882      -0.30873988      -2.15064908
H        2.71622890      -1.80336923      -1.19728948
H        4.15524832      -0.77198969      -1.21002956
H        4.66815803       6.06092765      -0.00099000
