17
Properties=species:S:1:pos:R:3 atomization_energy=-1667.71 smiles=C.C.C.C.O.C.O.H.H.H.H.H.H.H.H.H.H pbc="F F F"
C        3.06039889      -0.89325965       0.94877966
C        2.64997907      -0.00247000      -0.21981992
C        3.06628881       1.46667947      -0.05436998
C        2.54468906       2.30662916      -1.21803956
O        2.49690913       1.99016917       1.14314954
C        4.59073826       1.58309943      -0.02399999
O        5.20772805       1.93541922       0.97986964
H        2.70486895      -1.91518919       0.78189968
H        2.63164897      -0.53982979       1.89139928
H        4.14846843      -0.93309960       1.05693956
H        1.55758937      -0.06099998      -0.30880987
H        3.07428872      -0.41561983      -1.14325956
H        2.92982882       1.95220922      -2.18018925
H        2.84157899       3.35579881      -1.10283962
H        1.44952940       2.29295911      -1.25281952
H        3.22426861       2.04078922       1.79710926
H        5.11834777       1.30278943      -0.95179962
