17
Properties=species:S:1:pos:R:3 atomization_energy=-1637.43 smiles=C.O.C.C.C.O.C.H.H.H.H.H.H.H.H.H.H pbc="F F F"
C        2.32112912      -1.06652953       0.73906973
O        3.55776853      -0.79387968       0.08591997
C        3.94871847       0.51182979       0.24507990
C        5.23690814       0.89707963       0.24528991
C        6.36705745      -0.08275997       0.09868997
O        5.68951774       2.19422921       0.38246984
C        4.72479832       3.22819867       0.53149977
H        2.10171915      -2.13148906       0.61963978
H        1.50533939      -0.49512982       0.28343989
H        2.38999915      -0.84690968       1.81006925
H        3.11791881       1.19717946       0.33662986
H        6.03182780      -1.12396959       0.06794998
H        7.05929747       0.01514999       0.94181960
H        6.91984710       0.11917996      -0.82467968
H        5.26066816       4.17634826       0.63556976
H        4.12646842       3.07931869       1.43635947
H        4.08547847       3.29771871      -0.35456986
