21
Properties=species:S:1:pos:R:3 atomization_energy=-2050.05 smiles=C.C.C.C.C.C.C.H.H.H.H.H.H.H.H.H.H.H.H.H.H pbc="F F F"
C        0.70328973       0.86577964      -0.00315000
C        2.19907901       0.61305973      -0.10193996
C        2.98963890       1.92184922      -0.11491996
C        4.49325815       1.65959933      -0.22423991
C        5.27347800       2.94351880      -0.23506991
C        6.19423779       3.26739884       0.68488973
C        6.97727719       4.53980822       0.67227973
H        0.15856995      -0.08355997       0.00939000
H        0.34683988       1.45047942      -0.85741966
H        0.45673982       1.41099942       0.91366965
H        2.40773905       0.04255999      -1.01428958
H        2.51584911      -0.00422000       0.74663974
H        2.77697891       2.48758902       0.80084970
H        2.65843898       2.54129899      -0.95825961
H        4.70828828       1.11552961      -1.15177952
H        4.81637791       1.01691963       0.60404974
H        5.06771801       3.62852852      -1.05595956
H        6.40668758       2.58159907       1.50306942
H        6.70145743       5.18753801      -0.16593994
H        8.04630682       4.31860808       0.59598978
H        6.80525742       5.09220777       1.60104939
