15
Properties=species:S:1:pos:R:3 atomization_energy=-1554.7 smiles=O.C.C.C.C.C.C.H.H.H.H.H.H.H.H pbc="F F F"
O        0.96258962      -0.30766987      -0.22210991
C        2.25036913       0.24710991       0.12103995
C        3.53809855      -0.45274983      -0.51823980
C        4.20672843       0.94529963      -0.16223993
C        2.83207897       1.40842943      -0.81449969
C        2.86480886       0.84084969      -2.19694909
C        3.33555881      -0.39963985      -1.99979927
H        0.34620987       0.44014983      -0.15901993
H        2.29437898       0.43955982       1.20042949
H        3.93924847      -1.36222947      -0.07555997
H        4.35475806       1.17056950       0.90024967
H        5.12215798       1.20641958      -0.70537973
H        2.49867898       2.43533904      -0.67621976
H        2.56463888       1.31232945      -3.11848883
H        3.50838856      -1.18331954      -2.71975901
