15
Properties=species:S:1:pos:R:3 atomization_energy=-1494.62 smiles=C.C.O.C.C.C.O.H.H.H.H.H.H.H.H pbc="F F F"
C        0.99864958      -0.05908998       0.00588000
C        2.51999896       0.00000000       0.00000000
O        2.99839883      -0.67386973      -1.16067950
C        3.00201878       1.36116943       0.00000000
C        3.39929870       2.48306901       0.00000000
C        3.88131852       3.84423844       0.00000000
O        2.85151883       4.70898825      -0.45744982
H        0.58262978       0.42710983       0.89352965
H        0.65782973      -1.09920959      -0.01641000
H        0.57963978       0.42869983      -0.88132968
H        2.90418894      -0.54150981       0.87047963
H        2.77497893      -0.10941996      -1.92075928
H        4.74476832       3.95532853      -0.66305974
H        4.17444846       4.15816830       1.00648958
H        3.21892878       5.60768772      -0.44501983
