19
Properties=species:S:1:pos:R:3 atomization_energy=-1791.56 smiles=C.C.O.C.C.C.O.H.H.H.H.H.H.H.H.H.H.H.H pbc="F F F"
C        1.07419952       0.98325959       0.59558977
C        2.52231889       0.55618976       0.46187981
O        3.30592881       1.70840928       0.15683993
C        4.70177814       1.38777939       0.07510997
C        5.45711762       2.66931901      -0.28986988
C        6.95745707       2.44496901      -0.34849987
O        5.01369793       3.12263867      -1.57217942
H        0.43172982       0.12364995       0.80599965
H        0.72749972       1.46895941      -0.32248988
H        0.96198964       1.71331927       1.40415948
H        2.62183909      -0.17886993      -0.34397986
H        2.86614899       0.10959995       1.40126940
H        4.84220806       0.62812978      -0.70313972
H        5.04561783       0.99844961       1.03991956
H        5.22203775       3.46211858       0.42795983
H        7.21280722       1.68447932      -1.09471960
H        7.34942693       2.12841920       0.62294973
H        7.47020731       3.36482873      -0.64918972
H        4.03762839       3.10666887      -1.52261941
