17
Properties=species:S:1:pos:R:3 atomization_energy=-1705.99 smiles=C.O.C.C.C.C.C.H.H.H.H.H.H.H.H.H.H pbc="F F F"
C        1.27228952      -0.08971997      -0.78435966
O        2.51247898      -0.19919991      -0.09139996
C        3.18406871       0.99501961      -0.04752998
C        4.52408798       1.08745953       0.01962999
C        5.40477807      -0.13448994       0.02927999
C        5.14417791       2.40581906       0.08275997
C        6.45758734       2.66219897       0.14231994
H        0.81743966      -1.08351963      -0.82480969
H        1.42965945       0.25916989      -1.81040927
H        0.58650975       0.57975976      -0.25374990
H        2.53330892       1.86125932      -0.04269999
H        4.83383823      -1.06738960      -0.01810999
H        6.00310746      -0.17187993       0.94622960
H        6.08051764      -0.12922994      -0.83283969
H        4.46844844       3.26079861       0.08147997
H        7.21113729       1.88271921       0.14917994
H        6.81284755       3.68726846       0.18696992
