15
Properties=species:S:1:pos:R:3 atomization_energy=-1529.28 smiles=O.C.C.C.C.C.O.H.H.H.H.H.H.H.H pbc="F F F"
O        0.93282961       0.12409995      -0.01279000
C        2.14543919       0.14458994       0.18311993
C        3.03401892       1.34977944      -0.05803998
C        2.28352899       2.67088901      -0.06787997
C        3.30461871       3.62480865       0.49713979
C        3.99253831       2.76257887       1.52936940
O        4.01300843       1.43165942       0.99285959
H        2.67913898      -0.77613972       0.47474981
H        3.57649857       1.19040954      -0.99602963
H        1.40525939       2.63766884       0.58842974
H        1.93960918       2.95037893      -1.06806964
H        4.01553830       3.91148850      -0.28658989
H        2.87045881       4.53449816       0.91911963
H        5.01394824       3.08996884       1.74110927
H        3.42911870       2.73770885       2.46830915
