17
Properties=species:S:1:pos:R:3 atomization_energy=-1681.81 smiles=C.C.C.O.C.C.C.H.H.H.H.H.H.H.H.H.H pbc="F F F"
C        0.97614959       0.18091993      -0.83407964
C        2.49854903       0.21397992      -0.77000971
C        3.02738892       1.43281939       0.00000000
O        2.52395904       1.35513946       1.34110947
C        2.67629899       2.56859896       2.06730924
C        4.47138809       1.43281939       0.00000000
C        5.66154783       1.43281939       0.00000000
H        0.64296976      -0.67973972      -1.42254938
H        0.58440979       1.08719962      -1.30497954
H        0.53720977       0.09287997       0.16464993
H        2.89802878       0.21163992      -1.79216925
H        2.83870898      -0.71272969      -0.28822989
H        2.64018888       2.34197900      -0.47690980
H        2.18245922       2.44974892       3.03524879
H        2.20533910       3.40092876       1.53759944
H        3.73408853       2.78520895       2.24901916
H        6.72710740       1.42703949       0.00524000
