17
Properties=species:S:1:pos:R:3 atomization_energy=-1669.79 smiles=C.C.O.C.C.C.O.H.H.H.H.H.H.H.H.H.H pbc="F F F"
C        1.00651961      -0.17470994       0.73857971
C        2.32523909      -0.37347984       0.04105999
O        2.53612898      -1.36996948      -0.65209973
C        3.34371870       0.73933973       0.19059993
C        4.78168792       0.25560989       0.01031000
C        5.21206814      -0.76000970       1.06363958
O        5.02230798      -0.21459991       2.36242919
H        1.17202949      -0.09765996       1.81691929
H        0.35347985      -1.03112960       0.54509980
H        0.52516979       0.73120974       0.36398986
H        3.22222877       1.20122951       1.17635949
H        3.11085883       1.50016938      -0.56259979
H        5.43829775       1.13179956       0.07680997
H        4.91785797      -0.17801992      -0.98724964
H        6.27296766      -0.99958958       0.93911966
H        4.63818814      -1.68812929       0.98798960
H        5.34668788      -0.87924965       2.99523889
