19
Properties=species:S:1:pos:R:3 atomization_energy=-1898.91 smiles=C.C.C.C.C.C.C.H.H.H.H.H.H.H.H.H.H.H.H pbc="F F F"
C        0.92345967       0.02664999       0.02848999
C        2.38589902       0.03386998       0.06441997
C        3.58684870       0.04137999       0.09459997
C        5.05822783       0.04680998       0.13140995
C        5.63680776       1.47021942       0.06263998
C        5.33290807       2.27142920       1.33199943
C        7.14996715       1.41017947      -0.15870994
H        0.52913978       1.04688958       0.02538999
H        0.51560981      -0.49231980       0.90091967
H        0.55897978      -0.48101980      -0.86940968
H        5.42695799      -0.53998977      -0.71904971
H        5.40785802      -0.46050981       1.03869960
H        5.19196794       2.00016919      -0.78995971
H        5.74292769       1.77863925       2.22019914
H        4.25496812       2.39284898       1.47834941
H        5.77025769       3.27384868       1.27069946
H        7.65218710       0.89133966       0.66498976
H        7.57294701       2.41768898      -0.23302990
H        7.38670686       0.88086968      -1.08776952
