17
Properties=species:S:1:pos:R:3 atomization_energy=-1709.94 smiles=O.C.C.C.C.C.C.H.H.H.H.H.H.H.H.H.H pbc="F F F"
O        1.12411960       1.75936935      -0.23408991
C        1.91084922       2.05141918       0.91647961
C        3.18337884       2.79554898       0.51362980
C        4.12197844       1.91569928      -0.26876988
C        5.35134793       1.57183940       0.14187995
C        6.22038738       0.72296974      -0.63668973
C        7.44055687       0.35653987      -0.22845991
H        0.37645985       1.21448952       0.06514998
H        2.14531908       1.11443954       1.43280942
H        1.30958951       2.67788893       1.58281935
H        3.67703844       3.17600875       1.41544941
H        2.92653893       3.65819864      -0.11247995
H        3.73996860       1.55803940      -1.22373948
H        5.72589785       1.93373920       1.09719951
H        5.85596755       0.36926985      -1.59919943
H        7.85375688       0.67816971       0.72193972
H        8.05794686      -0.28442988      -0.84991968
