20
Properties=species:S:1:pos:R:3 atomization_energy=-1894.96 smiles=C.C.C.C.C.C.H.H.H.H.H.H.H.H.H.H.H.H.H.H pbc="F F F"
C        0.96897959      -0.11274995       0.01023000
C        2.49908902      -0.00755000      -0.01313999
C        3.02565893      -0.81185967      -1.20824949
C        2.98376892       1.46882946      -0.04213998
C        2.45751896       2.27314909       1.15311953
C        4.51375805       1.57386941      -0.06577998
H        0.55328978       0.29492988       0.93658966
H        0.64767977      -1.15879950      -0.04669998
H        0.52208980       0.42382983      -0.83384965
H        2.87771888      -0.48509981       0.89991962
H        2.75503896      -0.33538987      -2.15689907
H        2.61134892      -1.82667934      -1.21017957
H        4.11443828      -0.91599962      -1.17316952
H        2.60508909       1.94635929      -0.95516963
H        2.72820883       1.79645926       2.10153923
H        1.36872952       2.37698895       1.11815954
H        2.87152895       3.28771882       1.15507951
H        4.96108787       1.03731961       0.77820972
H        4.83522807       2.62027893      -0.00880000
H        4.92957826       1.16644956      -0.99245958
