19
Properties=species:S:1:pos:R:3 atomization_energy=-1774.79 smiles=C.O.C.C.C.O.C.H.H.H.H.H.H.H.H.H.H.H.H pbc="F F F"
C        1.40427946      -0.25594989      -0.86847965
O        2.80662884      -0.02775999      -0.85611964
C        3.12450869       1.24955953      -0.29964989
C        4.64031832       1.40359943      -0.29322989
C        5.07837800       2.78127889       0.18044993
O        4.60497832       3.00208892       1.50711946
C        5.02407782       4.26307855       2.01195924
H        1.22036947      -1.24817953      -1.29079954
H        0.90108962       0.48816979      -1.49314939
H        1.00111959      -0.22972991       0.14850994
H        2.72647885       1.31213944       0.71976974
H        2.66543891       2.03382917      -0.91199967
H        5.03744785       1.21166946      -1.29784955
H        5.06594816       0.63040978       0.35981986
H        4.67941805       3.55508852      -0.48510981
H        6.17320749       2.83857877       0.16884993
H        4.62634825       4.37832833       3.02374878
H        4.63478823       5.07400812       1.38861940
H        6.11633758       4.31335808       2.05790914
