13
Properties=species:S:1:pos:R:3 atomization_energy=-1399.24 smiles=O.C.C.C.O.C.C.H.H.H.H.H.H pbc="F F F"
O        1.02022959      -0.08073997       0.34700986
C        2.21549922      -0.00334000       0.08705997
C        2.90336886       1.28233950      -0.01006999
C        4.19123833       1.45106938      -0.27848990
O        4.62645827       2.75843887      -0.30820989
C        3.40896853       3.53113850      -0.18212993
C        2.26402908       2.59344905       0.20212992
H        2.83508878      -0.89770964      -0.08815997
H        4.95805788       0.71550969      -0.45650983
H        3.21520866       4.01686834      -1.14591951
H        3.56122849       4.31290842       0.56956975
H        1.38665942       2.75740886      -0.43036982
H        1.97547920       2.73087900       1.24939954
