15
Properties=species:S:1:pos:R:3 atomization_energy=-1573.84 smiles=C.C.C.O.C.C.C.H.H.H.H.H.H.H.H pbc="F F F"
C        1.14320960       0.64917975      -1.75976929
C        1.55192933       1.04191960      -0.54002977
C        0.45206984       1.23545950       0.45894980
O        0.66341975       1.52639934       1.63045936
C        2.96429879       1.22394954      -0.15775993
C        3.89406856       2.02625923      -1.03560962
C        3.43537853       2.59022905       0.27531990
H        1.86735930       0.45740982      -2.54594896
H        0.09957996       0.50260980      -2.01804926
H       -0.57528978       1.09367962       0.08222997
H        3.38671872       0.37578984       0.37363986
H        3.51312861       2.49020898      -1.93812926
H        4.92442818       1.69721927      -1.11221953
H        4.14654844       2.63830901       1.09233961
H        2.73318884       3.41654856       0.26054989
