15
Properties=species:S:1:pos:R:3 atomization_energy=-1600.33 smiles=C.C.C.C.C.C.C.H.H.H.H.H.H.H.H pbc="F F F"
C        0.99999962       0.00000000       0.00000000
C        2.44399905       0.00000000       0.00000000
C        3.63415853       0.00000000       0.00000000
C        5.07815797       0.00000000       0.00000000
C        5.56017779       1.36116943       0.00000000
C        5.95745771       2.48306901       0.00000000
C        6.43947753       3.84423844       0.00000000
H        0.60589977       1.02126957       0.01167999
H        0.60578975      -0.52069981       0.87859965
H        0.60578975      -0.50045981      -0.89026965
H        5.45591804      -0.53451980      -0.87855965
H        5.45591804      -0.53451980       0.87855965
H        5.64535775       4.54364820      -0.28161988
H        7.26356719       3.97060846      -0.70939974
H        6.80380752       4.13330837       0.99075963
