19
Properties=species:S:1:pos:R:3 atomization_energy=-1898.25 smiles=C.C.C.C.C.C.C.H.H.H.H.H.H.H.H.H.H.H.H pbc="F F F"
C        0.94692963      -0.09105996       0.02263999
C        2.46655898      -0.04567998       0.00945000
C        2.98427888       1.39243945      -0.00671000
C        4.51226828       1.43346939      -0.02304999
C        5.00542802       2.81835897      -0.01966999
C        5.41196799       3.94861854      -0.01407999
C        5.90719786       5.32531794      -0.00489000
H        0.59884976      -1.12863961       0.03712998
H        0.53225979       0.39396984      -0.86680966
H        0.54684978       0.41376983       0.90778964
H        2.83476882      -0.58440979      -0.87130967
H        2.84912899      -0.56888978       0.89358964
H        2.60760887       1.92881925       0.87376965
H        2.58997899       1.91638928      -0.88699963
H        4.88861783       0.91339966      -0.91173964
H        4.90793782       0.90374963       0.85138969
H        5.10702819       6.02847785      -0.25485990
H        6.71263721       5.45406795      -0.73420971
H        6.29718742       5.59169800       0.98211962
