19
Properties=species:S:1:pos:R:3 atomization_energy=-1767.11 smiles=C.C.C.C.C.N.H.H.H.H.H.H.H.H.H.H.H.H.H pbc="F F F"
C        1.01025960      -0.00115000      -0.01348000
C        2.55024893      -0.03744998       0.01022000
C        3.00194888      -0.78541971       1.27697948
C        3.04331884      -0.80072965      -1.23175957
C        3.07134881       1.42263946       0.00348000
N        4.52734810       1.53515939       0.00096000
H        0.64000972       0.51248980      -0.90800961
H        0.61344977       0.52482981       0.86222966
H        0.58849976      -1.01270961      -0.01320000
H        2.70034893      -0.24614990       2.18192907
H        4.08905830      -0.91379967       1.30799944
H        2.55659910      -1.78596935       1.32292950
H        2.74811903      -0.28693988      -2.15348907
H        2.62162890      -1.81189929      -1.26572954
H        4.13393844      -0.90154962      -1.23830946
H        2.68251896       1.96092928       0.87656964
H        2.69046890       1.94297919      -0.88352963
H        4.90525807       1.14960960       0.86480968
H        4.78819806       2.52046905      -0.00492000
