13
Properties=species:S:1:pos:R:3 atomization_energy=-1393.37 smiles=C.C.O.C.O.C.C.H.H.H.H.H.H pbc="F F F"
C        0.90103965       2.34168907      -1.66164939
C        1.98333920       2.01691919      -0.95224965
O        2.86047886       2.99242893      -0.47735980
C        3.92385854       2.53636895       0.25129990
O        4.20110826       1.38127947       0.53360977
C        4.71789807       3.71840866       0.66207975
C        5.82254779       3.57975869       1.40664949
H        0.22584991       1.57470942      -2.02534920
H        0.66971971       3.37631863      -1.89135928
H        2.24483903       0.99568962      -0.70466973
H        4.37146845       4.69305807       0.33991985
H        6.17111768       2.60338889       1.73130935
H        6.40234749       4.44606817       1.70773934
