15
Properties=species:S:1:pos:R:3 atomization_energy=-1542.07 smiles=C.O.C.C.C.C.C.H.H.H.H.H.H.H.H pbc="F F F"
C        2.13691923      -0.82790970      -0.19372993
O        3.38983855      -0.16062993      -0.23944990
C        3.25596874       1.23168955       0.02960999
C        4.59357799       1.90925928       0.01249000
C        5.77428792       1.31421954      -0.21339992
C        6.99013700       2.04641923      -0.20653992
C        8.02604664       2.65542892      -0.20289992
H        2.30143921      -1.88353928      -0.42595982
H        1.45076947      -0.40960983      -0.93635966
H        1.70083934      -0.75472973       0.80714966
H        2.79749899       1.37369944       1.01493959
H        2.61334890       1.69020938      -0.73059973
H        4.56912810       2.97959889       0.20512992
H        5.82874757       0.24660990      -0.40818984
H        8.94616651       3.18955868      -0.20071993
