17
Properties=species:S:1:pos:R:3 atomization_energy=-1700.36 smiles=O.C.C.C.C.C.C.H.H.H.H.H.H.H.H.H.H pbc="F F F"
O        1.80281927      -0.45667983       1.04176959
C        2.71548881      -0.21583992      -0.01602999
C        3.05700882       1.23393946       0.00034000
C        4.30649820       1.72422931       0.05905997
C        4.66068801       3.14554883       0.08551997
C        5.75373756       3.63195846      -0.83013968
C        4.32714848       4.01037838      -1.10155955
H        1.60403940      -1.40724940       1.02779958
H        2.23337916      -0.47691983      -0.96273963
H        3.59531870      -0.85110967       0.12465995
H        2.21747901       1.92323919      -0.03837999
H        5.13930792       1.02493960       0.11317995
H        4.59920801       3.60429866       1.06797956
H        6.22588770       2.93034887      -1.50823944
H        6.42037756       4.40095840      -0.45671983
H        4.02571836       5.03387786      -0.90917967
H        3.83787843       3.56166856      -1.95847927
