21
Properties=species:S:1:pos:R:3 atomization_energy=-1994.13 smiles=C.C.O.C.C.C.C.H.H.H.H.H.H.H.H.H.H.H.H.H.H pbc="F F F"
C        0.95881960      -0.12068995      -0.00639000
C        2.47904912       0.02221999      -0.00429000
O        2.99320888      -0.72035969      -1.11234961
C        3.01820885       1.48459940      -0.02462999
C        2.56886896       2.25519900      -1.28039945
C        2.54159901       2.25247912       1.22253951
C        4.56175801       1.45435940      -0.01170999
H        0.49996982       0.35460985       0.86416964
H        0.68438974      -1.18167951       0.00490000
H        0.51522980       0.29728988      -0.91532962
H        2.85868882      -0.47681981       0.89593966
H        2.55387897      -0.40412983      -1.91949926
H        2.90571882       1.76457935      -2.19934901
H        2.98222894       3.27058881      -1.28436950
H        1.47948945       2.35135916      -1.32739942
H        2.80719886       1.71736931       2.14092928
H        1.45683943       2.40009896       1.21840948
H        3.00123882       3.24623885       1.27370952
H        4.93740809       0.91264967       0.86347964
H        4.97753785       2.46778909       0.02265999
H        4.96331797       0.96662963      -0.90649966
