19
Properties=species:S:1:pos:R:3 atomization_energy=-1760.25 smiles=C.C.C.C.N.C.H.H.H.H.H.H.H.H.H.H.H.H.H pbc="F F F"
C        0.99197959      -0.09362996       0.00493000
C        2.51186909      -0.04862998       0.00973999
C        3.03008886       1.38983943       0.00871000
C        4.55968839       1.42644941       0.00634000
N        5.01965799       2.81619901       0.01258999
C        6.47508752       2.88571880       0.01641000
H        0.64335973      -1.13125957       0.01181000
H        0.58813975       0.39445983      -0.88773965
H        0.58167976       0.40839984       0.88685965
H        2.89002886      -0.58246974      -0.87004966
H        2.88399891      -0.57755975       0.89507965
H        2.64549893       1.91559923       0.89165962
H        2.64528899       1.91681925      -0.87386964
H        4.93391785       0.91315963      -0.88720963
H        4.94093821       0.89730963       0.88797962
H        4.65735825       3.29042861       0.83991966
H        6.89475730       2.42124911      -0.88103963
H        6.89791749       2.40197908       0.90246962
H        6.78895733       3.93361846       0.02262999
