19
Properties=species:S:1:pos:R:3 atomization_energy=-1838.66 smiles=C.C.O.C.C.C.C.H.H.H.H.H.H.H.H.H.H.H.H pbc="F F F"
C        2.19448911       4.56096821      -0.81984968
C        3.30761867       3.88682842      -0.04348998
O        3.87373848       2.86421891      -0.85830969
C        4.94446782       2.16046905      -0.20120992
C        5.91980786       1.48347943      -1.12754954
C        6.32414751       2.73287898      -0.39398983
C        7.31544700       2.67428892       0.71628971
H        1.73982932       5.36401799      -0.23259991
H        1.41851940       3.83651861      -1.08826951
H        2.57649895       4.98046792      -1.75665930
H        2.91031882       3.44566860       0.87669965
H        4.07951841       4.62017825       0.21515991
H        4.71830836       1.64077933       0.72497968
H        5.73616773       1.55584942      -2.19300918
H        6.33616756       0.53402977      -0.81342967
H        6.41539755       3.64751846      -0.96964959
H        7.27520723       1.72257932       1.25459946
H        7.12406737       3.47922866       1.43201950
H        8.32789690       2.80109900       0.32291989
