16
Properties=species:S:1:pos:R:3 atomization_energy=-1574.56 smiles=C.C.C.C.O.N.C.H.H.H.H.H.H.H.H.H pbc="F F F"
C        0.96650965       0.01089999       0.03913998
C        2.48980903      -0.02512999      -0.05252998
C        2.97205873       0.16499993      -1.48186943
C        3.08839883      -1.24970954       0.61469976
O        3.28419880      -0.86530967       1.98267922
N        3.49454870       0.53593979       2.00305926
C        3.06239887       0.98932961       0.87619966
H        0.61938978      -0.09333996       1.07383957
H        0.51848979      -0.79816969      -0.54803977
H        0.57252978       0.96191962      -0.33753986
H        4.06564852       0.22155992      -1.53206935
H        2.58509890       1.09790957      -1.90746924
H        2.64599905      -0.66226975      -2.12146924
H        4.06589833      -1.52546937       0.20217992
H        2.43369914      -2.12572910       0.57531974
H        3.06704883       2.05795923       0.61635978
