12
Properties=species:S:1:pos:R:3 atomization_energy=-1157.46 smiles=C.C.C.C.H.H.H.H.H.H.H.H pbc="F F F"
C        1.02360962       0.01293000      -0.07535997
C        2.51083908      -0.04575998       0.00237000
C        3.29628875      -0.73433972      -1.08096957
C        3.35560880       0.76293971      -0.94510962
H        0.64185975       0.78714969       0.59833974
H        0.59205978      -0.94547960       0.22939991
H        0.67103971       0.23964991      -1.08679956
H        2.85657882      -0.15948993       1.02330960
H        2.76339894      -1.14715959      -1.92893923
H        4.17020828      -1.30543954      -0.78678968
H        4.26882817       1.20279951      -0.56092980
H        2.86365899       1.35920944      -1.70556929
