15
Properties=species:S:1:pos:R:3 atomization_energy=-1587.01 smiles=O.C.C.C.C.C.C.H.H.H.H.H.H.H.H pbc="F F F"
O        0.92347966      -0.09820996       0.11501995
C        2.34778918      -0.00266000       0.11980995
C        2.79935892       1.32676948      -0.53507978
C        3.78824840       1.19510947      -1.66234936
C        4.20417838       0.00874999      -2.12595922
C        3.71549853      -1.22809951      -1.57342934
C        2.86012887      -1.24594955      -0.54184977
H        0.58098975       0.69683970       0.55507981
H        2.66543891      -0.01396000       1.16928954
H        3.25998863       1.95220922       0.24012991
H        1.92997921       1.88557926      -0.90284963
H        4.16545840       2.11012922      -2.10925918
H        4.91476793      -0.04974998      -2.94566891
H        4.05609829      -2.15508910      -2.02551915
H        2.50465898      -2.19523904      -0.15300994
