18
Properties=species:S:1:pos:R:3 atomization_energy=-1718.57 smiles=C.C.C.N.C.C.O.H.H.H.H.H.H.H.H.H.H.H pbc="F F F"
C        0.89608967      -0.03503999      -0.19924993
C        2.38155918       0.08065996       0.02542999
C        2.80505884      -0.06887997       1.46315945
N        3.28091875      -0.48921981      -0.98717961
C        3.16552868       0.97544962      -0.92733964
C        4.37579845       1.76404933      -0.53691979
O        5.43947765       1.42754945      -1.42009950
H        0.62562974       0.08736996      -1.25381951
H        0.36703985       0.73440968       0.37253985
H        0.53477976      -1.01580962       0.12736995
H        3.88209847      -0.23559991       1.57009933
H        2.29983918      -0.92458961       1.92399921
H        2.53811911       0.82902968       2.02977925
H        2.75265897      -0.85905968      -1.78066925
H        2.65652884       1.43260945      -1.76941932
H        4.71067837       1.57045940       0.48495980
H        4.17730838       2.83611880      -0.62782975
H        5.42662794       0.45118983      -1.45737942
