15
Properties=species:S:1:pos:R:3 atomization_energy=-1578.94 smiles=O.C.C.C.C.C.C.H.H.H.H.H.H.H.H pbc="F F F"
O        1.82492930       0.54357982       1.20039946
C        2.74418897       0.07453997       0.21032991
C        3.37939859       1.10414960      -0.68122973
C        4.20225839       0.44655983       0.39192983
C        4.93673790      -0.79713968       0.11043996
C        4.14038828      -1.84044931      -0.17888993
C        2.69536892      -1.40271943      -0.13757995
H        0.93891962       0.66889976       0.82017966
H        3.10832871       2.14318915      -0.53374981
H        3.57273858       0.84579968      -1.71562936
H        4.47939810       1.00196964       1.27835948
H        6.01742776      -0.84770970       0.14788995
H        4.47043832      -2.84188885      -0.40826983
H        2.21310914      -1.55669940      -1.10775958
H        2.15448905      -1.96937922       0.62716978
