21
Properties=species:S:1:pos:R:3 atomization_energy=-2045.98 smiles=C.C.C.C.C.C.C.H.H.H.H.H.H.H.H.H.H.H.H.H.H pbc="F F F"
C        2.27407918      -0.45082982      -1.50989940
C        2.45074891       0.02537999      -0.07761997
C        3.25005864       1.32012951      -0.03936999
C        2.53782894       2.61242890      -0.52312979
C        3.27999875       3.36233872       0.60101975
C        3.35484878       2.01138922       1.35703952
C        4.61993803       1.75179928       2.14976920
H        1.71709932      -1.39295950      -1.53217936
H        3.24383867      -0.61524978      -1.99214922
H        1.72399931       0.28450990      -2.10657917
H        2.97482882      -0.74751968       0.49496981
H        1.46715940       0.16058994       0.38499984
H        4.23529839       1.19290952      -0.51411979
H        1.44885946       2.60501894      -0.39954983
H        2.77666879       2.93250883      -1.54173944
H        4.25130831       3.76525850       0.29050989
H        2.71085903       4.15266848       1.09714955
H        2.46583908       1.84464924       1.98225922
H        5.51774778       1.92188922       1.54655934
H        4.64399832       0.71749970       2.50744901
H        4.66893823       2.41078898       3.02235869
