15
Properties=species:S:1:pos:R:3 atomization_energy=-1505.93 smiles=C.C.C.C.C.N.H.H.H.H.H.H.H.H.H pbc="F F F"
C        0.99176958      -0.12138995      -0.07734997
C        2.50310891      -0.01287999       0.07421997
C        3.02738892       1.43281939       0.00000000
C        2.50671901       2.29811904       1.15026957
C        4.47138809       1.43281939       0.00000000
N        5.62239763       1.43281939       0.00000000
H        0.69457970      -1.17430955      -0.11936995
H        0.65293974       0.36262985      -0.99878963
H        0.46882980       0.33463988       0.76818971
H        2.96827881      -0.60853979      -0.72186970
H        2.80257892      -0.47825980       1.02173960
H        2.67905899       1.87892932      -0.94032965
H        2.76687884       1.86734920       2.12326912
H        1.41955938       2.40848898       1.10566951
H        2.93829882       3.30466867       1.10880953
