17
Properties=species:S:1:pos:R:3 atomization_energy=-1650.0 smiles=O.C.C.O.C.C.C.H.H.H.H.H.H.H.H.H.H pbc="F F F"
O        2.27645917      -0.35594986      -1.36959943
C        2.36848917       0.10375996      -0.01906999
C        3.17108879       1.40362946      -0.01002000
O        4.41887846       1.19615954      -0.71745971
C        2.37886908       2.66732887      -0.45233983
C        3.07816882       3.43173865       0.68708975
C        3.30844859       2.07663918       1.38195950
H        1.79377925      -1.20117955      -1.34435949
H        2.87784883      -0.66697977       0.56878979
H        1.35759944       0.24160990       0.37754986
H        4.13130839       0.74364974      -1.53609946
H        1.29196947       2.59231886      -0.33139985
H        2.59544903       3.03881877      -1.45788938
H        4.00440848       3.92967856       0.37797986
H        2.45568905       4.14529839       1.23239948
H        4.28070843       1.96819920       1.87072931
H        2.52249905       1.80741927       2.09723913
