16
Properties=species:S:1:pos:R:3 atomization_energy=-1582.64 smiles=C.C.C.O.C.C.N.H.H.H.H.H.H.H.H.H pbc="F F F"
C        1.49467941       0.18322993      -0.37885987
C        2.84666877      -0.10383996       0.18801992
C        3.14686878      -1.51011943       0.61409978
O        4.38195837      -1.89695927      -0.01838999
C        5.05531795      -0.72025970      -0.50070981
C        4.06544842       0.39296985      -0.49353981
N        3.61655868       1.01972959       0.74769972
H        1.40612943       1.21644950      -0.73169971
H        0.72399969       0.02080999       0.38195985
H        1.28370953      -0.47832982      -1.22527958
H        2.37268898      -2.21954914       0.30577988
H        3.27393876      -1.58371941       1.69974927
H        5.90771766      -0.51102981       0.15314993
H        5.42614800      -0.92713966      -1.50866941
H        3.99316838       0.96121965      -1.40838944
H        4.18323842       0.71211975       1.54093942
