15
Properties=species:S:1:pos:R:3 atomization_energy=-1521.26 smiles=C.O.C.C.C.C.O.H.H.H.H.H.H.H.H pbc="F F F"
C        2.26016917      -0.54506977      -0.66634976
O        3.52557863       0.04829998      -0.40247983
C        3.55941852       1.40569945      -0.16390994
C        2.50458908       2.24054916      -0.15791994
C        4.91523827       2.00931922       0.11686996
C        6.09384780       1.06969957       0.11019996
O        5.06288789       3.21184862       0.33556988
H        2.41809901      -1.61535935      -0.82864967
H        1.81398934      -0.12917995      -1.57560936
H        1.58703933      -0.43043984       0.18954993
H        1.49005948       1.91705922      -0.34647986
H        2.63350891       3.30194879       0.04160999
H        5.94448788       0.27304989       0.84385969
H        6.99953735       1.62042932       0.38270984
H        6.23001735       0.65000973      -0.89017963
