16
Properties=species:S:1:pos:R:3 atomization_energy=-1607.77 smiles=C.C.C.C.C.N.C.H.H.H.H.H.H.H.H.H pbc="F F F"
C       -1.02533961      -0.00002000      -1.19320954
C       -0.52865978       1.01479961      -0.06233998
C       -1.35204942      -0.00008000       0.86251965
C       -0.52926980      -1.01463963      -0.06239998
C        0.97471962      -0.79155968       0.23100991
N        1.85711932      -0.00042000      -0.58692976
C        0.97387961       0.79155968       0.23111991
H       -2.09687918       0.00010000      -1.42414941
H       -0.46998980       0.00007000      -2.13413904
H       -0.87679964       2.04662917      -0.11543996
H       -1.09036954      -0.00002000       1.92453920
H       -2.44260896       0.00006000       0.75979969
H       -0.87703967      -2.04660924      -0.11556995
H        1.31812953      -1.28113954       1.13229955
H        1.58280938      -0.00003000      -1.56820937
H        1.31845946       1.28080949       1.13251958
