16
Properties=species:S:1:pos:R:3 atomization_energy=-1608.52 smiles=C.C.C.N.C.C.O.H.H.H.H.H.H.H.H.H pbc="F F F"
C        0.98850959       0.00077000       0.02327999
C        2.50269912       0.00943999      -0.00764000
C        3.11619867       1.09322958       0.87477967
N        4.47840846       0.63319974       1.19698958
C        4.32849845      -0.81573970       1.45252949
C        3.12283877      -1.20702947       0.62328975
O        2.72789897      -2.35523901       0.46565983
H        0.59440974      -0.80702967      -0.60243974
H        0.58645979       0.94808966      -0.34948986
H        0.60755973      -0.15905994       1.03793958
H        2.87833886       0.08848996      -1.03431957
H        2.55274903       1.22614949       1.80704923
H        3.14349864       2.06132924       0.36410987
H        5.06579777       0.75271972       0.36917987
H        5.21702797      -1.36202949       1.12792955
H        4.11941829      -0.99841959       2.50993901
