17
Properties=species:S:1:pos:R:3 atomization_energy=-1695.82 smiles=C.O.C.C.C.C.C.H.H.H.H.H.H.H.H.H.H pbc="F F F"
C        3.69805865      -0.73913970      -1.26702955
O        2.76019888       0.07628997      -0.57561976
C        3.19708875       1.29409952      -0.13478995
C        4.40479838       1.86522925      -0.26156989
C        4.75827813       3.19422883       0.24959989
C        5.04594788       3.35193864       1.71968937
C        6.16590755       3.44288867       0.72518969
H        3.19391871      -1.66853930      -1.54821943
H        4.54435826      -0.99605960      -0.62105977
H        4.04140832      -0.25050990      -2.18484905
H        2.38157911       1.79487929       0.37752986
H        5.19662800       1.33999946      -0.78872966
H        4.25797843       4.01769851      -0.25134989
H        5.00694807       2.47764894       2.36031919
H        4.71847793       4.26575831       2.20306913
H        6.59766752       4.41930843       0.53524979
H        6.88539733       2.63222908       0.70091971
