17
Properties=species:S:1:pos:R:3 atomization_energy=-1652.69 smiles=C.C.O.C.O.C.C.H.H.H.H.H.H.H.H.H.H pbc="F F F"
C        0.88842965      -0.10175996      -0.02131999
C        2.42021910      -0.07871997      -0.06899998
O        2.89546888      -0.92004966       0.99286962
C        2.94490889      -0.68185974      -1.39131948
O        2.56284909      -2.05500922      -1.50318940
C        2.93122875       1.33464954       0.11205996
C        3.81058855       1.76487925       1.02878961
H        0.44870982       0.46512981      -0.84819966
H        0.51929981       0.32305986       0.91958966
H        0.50731981      -1.12841957      -0.06244998
H        2.55518907      -0.53844980       1.82118924
H        4.03960844      -0.65451971      -1.42384939
H        2.55975904      -0.14449994      -2.26357918
H        2.77644902      -2.44062892      -0.62967978
H        2.54063890       2.06606915      -0.59488973
H        4.26801819       1.09680954       1.75186930
H        4.11202826       2.80795888       1.05961957
