13
Properties=species:S:1:pos:R:3 atomization_energy=-1413.13 smiles=O.C.O.C.C.C.C.H.H.H.H.H.H pbc="F F F"
O        0.90851964      -0.01019000       0.17470994
C        2.13037905       0.03063999       0.12382995
O        2.83301890       1.16859955       0.33197987
C        4.19284845       1.29013944      -0.12016995
C        5.03945792       0.03696999       0.06060998
C        4.24265839      -1.21055958      -0.10324996
C        2.90742887      -1.20043959      -0.09713996
H        4.64521809       2.11098916       0.44859984
H        4.17162840       1.60667941      -1.16886954
H        5.49524791       0.03058999       1.05605962
H        5.86021782       0.05462998      -0.66647971
H        4.77724790      -2.15115904      -0.20705992
H        2.32505918      -2.10989922      -0.19669993
