14
Properties=species:S:1:pos:R:3 atomization_energy=-1496.52 smiles=C.C.C.C.N.C.O.H.H.H.H.H.H.H pbc="F F F"
C        0.99555960       0.05067998       0.03980998
C        2.46885898      -0.03768999      -0.02077999
C        3.28231868      -1.10121953      -0.05721998
C        4.72076808      -0.72681968      -0.11925995
N        4.63194799       0.69641970      -0.11676995
C        3.33857871       1.15151950      -0.06021998
O        2.97413895       2.31044920      -0.04608998
H        0.53630977      -0.94254960       0.01729000
H        0.60824973       0.61935975      -0.81156968
H        0.67810972       0.54850980       0.96141962
H        2.94534896      -2.12770914      -0.04355998
H        5.27997806      -1.06089964       0.75770970
H        5.20289792      -1.06268956      -1.04012956
H        5.40924787       1.34089953      -0.15271994
