19
Properties=species:S:1:pos:R:3 atomization_energy=-1792.46 smiles=O.C.C.C.C.C.O.H.H.H.H.H.H.H.H.H.H.H.H pbc="F F F"
O        2.32224897      -0.12101995      -1.18714955
C        1.97596923       0.54220978       0.02084999
C        2.61126893       1.92694922       0.05184998
C        4.14125832       1.86172929       0.04731998
C        4.75551814       3.25953872       0.09987996
C        6.27746774       3.20505864       0.07686997
O        6.80566721       4.52329819       0.14374995
H        1.88737926      -0.99062962      -1.16958957
H        2.31557909      -0.06468997       0.86647967
H        0.88570965       0.62903974       0.06556997
H        2.26652918       2.45951894       0.94488966
H        2.27913918       2.49554906      -0.82469967
H        4.49107801       1.34570947      -0.85480967
H        4.48624839       1.27688952       0.90867961
H        4.42456803       3.78648839       1.00373961
H        4.39951810       3.86158848      -0.74561969
H        6.64586734       2.72965898      -0.83769965
H        6.66032743       2.64427891       0.93402963
H        6.48564758       5.00494809      -0.63753978
