15
Properties=species:S:1:pos:R:3 atomization_energy=-1517.59 smiles=C.C.O.C.O.C.C.H.H.H.H.H.H.H.H pbc="F F F"
C        1.65954937      -1.06951953       1.28958948
C        1.73837929       0.13246995       0.38503983
O        0.74551970       0.55037976      -0.21423991
C        3.08169868       0.84434965       0.30565989
O        4.15170836      -0.00695000      -0.07472997
C        4.31854853      -0.28754989      -1.39958951
C        3.59390867       0.11392995      -2.45110899
H        2.35369903      -1.84094930       0.94844960
H        0.64499976      -1.47753943       1.27150944
H        1.90014924      -0.77088972       2.31330912
H        3.30149863       1.21825947       1.31198943
H        3.01166893       1.72791928      -0.33892986
H        5.18482797      -0.92998962      -1.52223941
H        2.72073882       0.75083973      -2.37222898
H        3.87319850      -0.20269992      -3.45173868
