19
Properties=species:S:1:pos:R:3 atomization_energy=-1781.76 smiles=C.C.C.O.C.O.C.H.H.H.H.H.H.H.H.H.H.H.H pbc="F F F"
C        1.46098940      -1.08773962      -0.52879980
C        1.18067952       0.13351995       0.33615986
C        2.33795911       0.44507982       1.29476946
O        2.18953913       1.72361930       1.91550927
C        1.04608957       1.84463927       2.74854900
O        2.46050908      -0.61175979       2.24651906
C        3.68149866      -0.53500976       2.96984881
H        0.62426974      -1.26587955      -1.21127949
H        1.59473935      -1.98527925       0.08238996
H        2.36343901      -0.94218965      -1.13023952
H        0.26163990      -0.06024998       0.90233967
H        0.98516961       1.00226959      -0.30367988
H        3.25998863       0.49558982       0.70201975
H        1.10671959       2.80656879       3.26622878
H        1.01373963       1.05349959       3.50328870
H        0.12759995       1.84307923       2.15520921
H        3.71495854      -1.37138947       3.67361860
H        3.74163853       0.39715984       3.53963853
H        4.53669799      -0.61909978       2.29196922
