13
Properties=species:S:1:pos:R:3 atomization_energy=-1387.84 smiles=O.C.C.C.O.C.C.H.H.H.H.H.H pbc="F F F"
O        1.07586957       0.37436985      -0.85874970
C        2.02250921       0.28446990      -0.08060997
C        3.22072866       1.21348953      -0.07845997
C        3.81332862       1.35662948       1.32504947
O        3.47150859       2.66385906       1.83815927
C        2.99142894       3.33561861       0.73679970
C        2.83280896       2.61418891      -0.36596987
H        2.08458913      -0.57950977       0.60370979
H        3.96368852       0.81201971      -0.77357969
H        4.90884824       1.29593952       1.28935948
H        3.45751858       0.60272973       2.03500919
H        2.76552888       4.37670836       0.89805962
H        2.43579904       2.97260881      -1.30477944
