17
Properties=species:S:1:pos:R:3 atomization_energy=-1697.1 smiles=O.C.C.C.C.C.C.H.H.H.H.H.H.H.H.H.H pbc="F F F"
O        0.83037965       0.02862999      -0.55130980
C        2.19446917       0.01101999      -0.09197996
C        3.14563866      -0.76149971      -0.97141964
C        3.16915871       0.73933973      -0.98329958
C        2.33698915       0.02077999       1.43571943
C        1.40102944       0.79121967       2.33638911
C        1.38015949      -0.70948970       2.34772913
H        0.76972969       0.02299999      -1.51977943
H        2.74572895      -1.27839947      -1.83462928
H        3.97026831      -1.27927948      -0.49454980
H        4.00977834       1.23846956      -0.51451980
H        2.78549887       1.25475957      -1.85473933
H        3.37617859       0.00884000       1.77007929
H        0.56230980       1.30441950       1.88002923
H        1.82652933       1.30302953       3.19049887
H        1.79142929      -1.22003954       3.20962886
H        0.52732978      -1.20605951       1.89899924
