19
Properties=species:S:1:pos:R:3 atomization_energy=-1786.04 smiles=C.O.C.C.C.C.O.H.H.H.H.H.H.H.H.H.H.H.H pbc="F F F"
C        2.05741924       0.85689967      -0.37423987
O        3.20511869       1.69825938      -0.40347986
C        4.18715838       1.21601952      -1.32778953
C        5.45620772       2.07437918      -1.22260954
C        6.53121760       1.53038945      -2.16114908
C        5.18055802       3.55420864      -1.53395943
O        4.31012823       4.14344830      -0.57636976
H        1.33962942       1.28113954       0.33231985
H        2.32827918      -0.14753995      -0.03617998
H        1.59121933       0.81020968      -1.36327942
H        3.77238863       1.26270952      -2.34302920
H        4.42496823       0.17394993      -1.09256961
H        5.81412750       2.01624925      -0.18881992
H        6.18567770       1.52354938      -3.20057875
H        6.80058728       0.50440980      -1.88767928
H        7.44129721       2.13832926      -2.11115911
H        4.73030822       3.67277859      -2.52555907
H        6.11381780       4.12706847      -1.51670944
H        3.62711850       3.47359864      -0.36354985
