12
Properties=species:S:1:pos:R:3 atomization_energy=-1221.64 smiles=C.O.N.C.O.C.C.H.H.H.H.H pbc="F F F"
C        1.02471957       1.15890952      -0.28767990
O       -0.11120995       1.29666952       0.56003976
N       -1.28007950       0.85795964      -0.07690997
C       -1.40764947      -0.42890983      -0.08402997
O       -0.52585979      -1.41009948       0.26893989
C        0.87216968      -1.29049952       0.21386992
C        1.59118942      -0.20500992      -0.09633996
H        1.75725935       1.90411929       0.03892999
H        0.78284971       1.36091949      -1.33706952
H       -2.34816919      -0.89753963      -0.41075983
H        1.31126953      -2.26170915       0.40512985
H        2.67086908      -0.29505990      -0.16416993
