17
Properties=species:S:1:pos:R:3 atomization_energy=-1635.49 smiles=C.O.C.C.C.C.O.H.H.H.H.H.H.H.H.H.H pbc="F F F"
C        2.87576887      -0.93968961       0.77244969
O        4.05839829      -0.49385980       0.12357995
C        4.24088854       0.91299965       0.28042989
C        5.55319780       1.29954950      -0.33591987
C        6.79573747       0.82202969       0.34376986
C        5.60709777       1.66901936      -1.79991935
O        5.61466771       2.66848883      -0.76829972
H        2.77102894      -2.01424915       0.59909976
H        1.99670922      -0.43200982       0.36295987
H        2.94302878      -0.76578972       1.85093922
H        4.24099856       1.17348960       1.34545953
H        3.40869854       1.43857948      -0.20366991
H        7.69205695       1.30868944      -0.05675997
H        6.91156710      -0.25744989       0.21043991
H        6.75492743       1.03324956       1.41802949
H        4.70933798       1.56541934      -2.39628902
H        6.52793729       1.50365937      -2.34606904
