13
Properties=species:S:1:pos:R:3 atomization_energy=-1401.02 smiles=C.C.O.C.C.C.C.H.H.H.H.H.H pbc="F F F"
C        0.87182966       2.24640904       0.09081997
C        2.16562923       2.18595905      -0.22773991
O        2.95309881       1.12361961       0.13904995
C        4.33753848       1.16826950       0.00000000
C        5.00911812       0.01301999      -0.07390997
C        5.04053790       2.38589902       0.00000000
C        5.63561777       3.41660862       0.00000000
H        0.26001990       3.08516874      -0.22166992
H        0.40343983       1.45879941       0.67175974
H        2.65506885       2.94964894      -0.81601967
H        4.47925830      -0.93314963      -0.05122998
H        6.08984784      -0.01714000      -0.16064995
H        6.16858781       4.33868810       0.00344000
