16
Properties=species:S:1:pos:R:3 atomization_energy=-1613.34 smiles=C.C.C.C.N.C.O.H.H.H.H.H.H.H.H.H pbc="F F F"
C        0.93937962      -0.02339999       0.18220993
C        2.43929913       0.02467999      -0.07853997
C        2.76758890       0.02778999      -1.56813934
C        3.20460873       1.07665962       0.77439971
N        4.09759845      -0.00817000       1.19514959
C        3.26874881      -0.99257963       0.74853973
O        3.24393884      -2.16810914       1.01421962
H        0.71682970      -0.05203998       1.25444945
H        0.49204980      -0.91392962      -0.27263989
H        0.44238984       0.85735966      -0.23835991
H        3.84892852       0.05572998      -1.74356937
H        2.32955900       0.90227967      -2.06116913
H        2.37527915      -0.87026969      -2.05726923
H        2.66109906       1.51356943       1.61803936
H        3.72450852       1.86159921       0.21880992
H        4.56116806      -0.15216994       2.08150918
