17
Properties=species:S:1:pos:R:3 atomization_energy=-1758.48 smiles=C.C.C.C.C.C.C.H.H.H.H.H.H.H.H.H.H pbc="F F F"
C        1.95090920      -0.43445983       1.65191938
C        2.47019911      -0.04794998       0.27579989
C        3.02640886       1.34462949       0.27132991
C        4.30673842       1.63645942       0.00000000
C        4.77606799       2.96180878       0.00000000
C        5.17334791       4.08370837       0.00000000
C        5.65536773       5.44487805       0.00000000
H        1.53787940      -1.44833940       1.62872938
H        1.15882953       0.24508990       1.98268919
H        2.75297893      -0.41285983       2.39729910
H        1.65168938      -0.10209996      -0.45110981
H        3.22707883      -0.77493969      -0.04142999
H        2.32673920       2.14976920       0.49418982
H        5.01731787       0.84784968      -0.22895991
H        4.86155833       6.14396735      -0.28055990
H        6.47859745       5.57141763      -0.70980972
H        6.02048753       5.73361768       0.99039961
