19
Properties=species:S:1:pos:R:3 atomization_energy=-1788.34 smiles=C.O.C.C.C.C.O.H.H.H.H.H.H.H.H.H.H.H.H pbc="F F F"
C        2.03939926      -0.52305980       1.11700953
O        3.31035874       0.10995995       1.04542959
C        3.28493863       1.37789949       0.36397986
C        2.59035900       2.44500914       1.20507958
C        4.74724823       1.76482929       0.03718998
C        5.64721794       1.89958919       1.26046945
O        5.30743775       0.75060973      -0.80514968
H        2.17387920      -1.50369937       1.58297932
H        1.62220939      -0.66847975       0.11667995
H        1.34812945       0.05385998       1.73749929
H        2.75290903       1.24573948      -0.58708980
H        2.95114880       2.43555908       2.23911919
H        1.51156945       2.26214921       1.24950956
H        2.73771894       3.44364869       0.78217971
H        4.76353823       2.70180892      -0.52993980
H        5.67618758       0.97102960       1.84096923
H        5.32220771       2.71329883       1.91481927
H        6.67791744       2.10147918       0.94915961
H        5.11449821      -0.09410996      -0.35213988
