10
Properties=species:S:1:pos:R:3 atomization_energy=-1047.64 smiles=C.O.C.N.O.C.C.H.H.H pbc="F F F"
C        1.97792922       0.48251981       0.51869980
O        1.57649933       0.66983976      -0.86044965
C        2.79123890       1.17473952      -1.16506956
N        2.98612872       2.33650896      -1.77353926
O        3.74041851       3.06957870      -0.83321970
C        3.80271859       2.36230908       0.34339988
C        3.23313882       1.14175957       0.14044994
H        2.05349915      -0.57982979       0.76919973
H        1.34171948       1.00686959       1.23675952
H        4.18246830       2.91024892       1.19278953
