19
Properties=species:S:1:pos:R:3 atomization_energy=-1776.51 smiles=C.C.O.C.C.O.C.H.H.H.H.H.H.H.H.H.H.H.H pbc="F F F"
C        1.92982920       3.58427870      -0.12235995
C        2.67768883       2.26836918      -0.20272992
O        4.07672838       2.54135905      -0.16494994
C        4.84576795       1.33912943      -0.20841992
C        6.32946766       1.68773931      -0.23253991
O        7.09727736       0.48499982      -0.27948989
C        8.49027660       0.76045973      -0.35043986
H        0.84949967       3.42220861      -0.16777994
H        2.22357912       4.24625815      -0.94337964
H        2.16954919       4.10663847       0.80957967
H        2.42801917       1.75550931      -1.13820952
H        2.40012899       1.62949937       0.64310973
H        4.58798835       0.75800972      -1.10257960
H        4.62200816       0.72030973       0.66851974
H        6.59114729       2.26491905       0.66045972
H        6.54912757       2.30968918      -1.10902956
H        9.02888675      -0.19072993      -0.36064984
H        8.81341605       1.33620945       0.52237980
H        8.72531610       1.30488946      -1.26962945
