17
Properties=species:S:1:pos:R:3 atomization_energy=-1719.53 smiles=O.C.C.C.C.C.C.H.H.H.H.H.H.H.H.H.H pbc="F F F"
O        1.13171956       0.04100998       0.48999980
C        2.51573910       0.02522999       0.13043994
C        2.83127883      -1.29997947      -0.58178977
C        2.52003907      -1.02559957      -2.02961915
C        3.52236872      -0.38413987      -2.94994896
C        2.50599911       0.46088982      -2.23197922
C        2.80936891       1.11670951      -0.91129963
H        0.92745962       0.93227965       0.82129970
H        3.09755870       0.15068994       1.04817956
H        2.22339921      -2.12655926      -0.19994992
H        3.89138855      -1.55482937      -0.47253980
H        1.70119929      -1.60656939      -2.42920916
H        4.55924832      -0.33362986      -2.63855907
H        3.39297855      -0.53195977      -4.01680854
H        1.67720940       0.89734963      -2.77215888
H        3.86510850       1.40848948      -0.87719965
H        2.18877911       2.00545919      -0.76464969
