17
Properties=species:S:1:pos:R:3 atomization_energy=-1703.72 smiles=O.C.C.C.C.C.C.H.H.H.H.H.H.H.H.H.H pbc="F F F"
O        1.63817931      -0.41439984      -1.13356953
C        2.48803893      -0.21487992      -0.01725000
C        2.87334876       1.22487951       0.00412000
C        4.14055835       1.67354934      -0.01965999
C        4.51895809       3.12616878      -0.01575999
C        5.35738774       3.46245872       1.18281955
C        6.61444755       3.92379848       1.12261962
H        1.44520949      -1.36548946      -1.17042958
H        3.35602868      -0.87514965      -0.10908995
H        1.93915927      -0.47108981       0.89435962
H        2.04996916       1.93343918       0.03369999
H        4.96282795       0.96306962      -0.06650998
H        3.62767867       3.76492845      -0.00757999
H        5.05791797       3.34788873      -0.94426961
H        4.89221809       3.32741860       2.15767903
H        7.11906717       4.08147852       0.17454993
H        7.16506716       4.15368840       2.02924923
