21
Properties=species:S:1:pos:R:3 atomization_energy=-2051.87 smiles=C.C.C.C.C.C.C.H.H.H.H.H.H.H.H.H.H.H.H.H.H pbc="F F F"
C        0.85796967       1.02772956      -1.31741947
C        2.37866897       1.04363962      -1.29338946
C        2.91315881       1.66725935      -0.00258000
C        4.41687849       1.66809936       0.01264000
C        5.25238816       2.72459898       0.03108999
C        4.83637819       4.16953834       0.02844999
C        6.74555736       2.51732904       0.05191998
H        0.49886981       0.57184975      -2.24502904
H        0.45496982       2.04341914      -1.25979950
H        0.45887981       0.45035982      -0.47793981
H        2.74517886       1.60519936      -2.16222906
H        2.74813896       0.01533999      -1.39625949
H        2.56403909       1.08411954       0.85807969
H        2.49701889       2.66999903       0.11871996
H        4.85489830       0.66839976       0.01923999
H        3.75547865       4.31592832      -0.01798000
H        5.26881795       4.68332818      -0.83723965
H        5.19607791       4.66492819       0.93654960
H        7.01929741       1.45710943       0.04731998
H        7.17804708       2.96835880       0.95138964
H        7.20510708       2.98194885      -0.82641969
