17
Properties=species:S:1:pos:R:3 atomization_energy=-1681.63 smiles=C.C.C.O.C.C.C.H.H.H.H.H.H.H.H.H.H pbc="F F F"
C        0.36603986      -0.33081987       1.43414943
C        1.63326932      -0.44579981       0.60625978
C        2.04751915       0.89495967       0.01371999
O        3.23757883       0.69900975      -0.74605969
C        3.69221844       1.91443926      -1.33629953
C        4.91429809       1.64984938      -2.10180923
C        5.91569789       1.43173941      -2.72877885
H        0.09585996      -1.30574953       1.85171930
H       -0.47114980       0.02054999       0.82262967
H        0.50230981       0.36868984       2.26503917
H        1.48633935      -1.17455948      -0.19991993
H        2.44760916      -0.84124964       1.22519947
H        2.23820903       1.61973932       0.81376969
H        1.25563945       1.28213952      -0.63785973
H        3.89556842       2.64971892      -0.54980981
H        2.91534879       2.31300910      -1.99823923
H        6.80297736       1.22764948      -3.28175876
