15
Properties=species:S:1:pos:R:3 atomization_energy=-1490.92 smiles=O.C.C.C.O.C.C.H.H.H.H.H.H.H.H pbc="F F F"
O        2.58232906      -0.85789965       0.80342966
C        2.37957914       0.02865999      -0.29521987
C        2.92738878       1.43281939       0.00000000
C        2.37932907       1.96727919       1.33264943
O        2.63291896       3.36728871       1.46493939
C        4.37138821       1.43281939       0.00000000
C        5.56154794       1.43281939       0.00000000
H        2.32841897      -1.74830929       0.50370981
H        1.30109944       0.07924997      -0.48166981
H        2.85958888      -0.40297983      -1.18136952
H        2.59425903       2.10081921      -0.80512968
H        2.81646901       1.45812947       2.19847922
H        1.29316943       1.83766925       1.37605949
H        3.60040847       3.47384870       1.50021946
H        6.62748753       1.42600947       0.00144000
