15
Properties=species:S:1:pos:R:3 atomization_energy=-1505.31 smiles=C.C.C.O.C.C.O.H.H.H.H.H.H.H.H pbc="F F F"
C        1.33821952      -0.38180984      -0.81812966
C        2.29485917      -0.07005997       0.06638997
C        3.03556874       1.22693954       0.09939996
O        4.42295816       0.92336965      -0.01056999
C        5.21367802       2.10474914      -0.02647999
C        6.66317726       1.70243937      -0.14323994
O        7.58108721       2.30976917       0.40318983
H        0.84678970      -1.34956950      -0.78312967
H        1.03007959       0.30851987      -1.59697942
H        2.57234911      -0.80018967       0.82331967
H        2.84271877       1.73399933       1.05125958
H        2.73090903       1.88270924      -0.72437971
H        5.07161804       2.67279891       0.89830962
H        4.95863824       2.71479894      -0.89854965
H        6.87308709       0.87936964      -0.84749969
