12
Properties=species:S:1:pos:R:3 atomization_energy=-1265.8 smiles=C.C.N.O.C.O.C.H.H.H.H.H pbc="F F F"
C        0.99499961       0.03769999       0.00288000
C        2.47232904      -0.04723999       0.00407000
N        3.20846864       1.07167961       0.00466000
O        4.53031804       0.64789974       0.00601000
C        4.56329824      -0.70822975       0.00640000
O        5.77312770      -1.24030956       0.00785000
C        3.28718867      -1.20372948       0.00521000
H        0.54249978      -0.95903963      -0.00998999
H        0.64103974       0.58075976      -0.87931967
H        0.63887972       0.55909976       0.89718965
H        5.65647799      -2.20387912       0.00815999
H        2.97959889      -2.23732916       0.00523000
