19
Properties=species:S:1:pos:R:3 atomization_energy=-1781.97 smiles=C.C.C.O.C.O.C.H.H.H.H.H.H.H.H.H.H.H.H pbc="F F F"
C       -0.66626971       5.03966786      -0.10985996
C       -0.12850995       4.08484840       0.94065964
C        0.45849983       2.82466901       0.31556988
O        0.96691962       2.00617921       1.36669952
C        1.54817944       0.80653971       0.87108964
O        2.73671895       1.03336961       0.12057995
C        3.77340855       1.57694937       0.92824961
H       -1.08537956       5.93047744       0.36740986
H       -1.45574949       4.56726842      -0.70223972
H        0.12875995       5.36093803      -0.78966966
H       -0.92809966       3.80930847       1.63896936
H        0.63771975       4.58726820       1.54265944
H       -0.31665986       2.27880913      -0.23443992
H        1.26614955       3.09193879      -0.37511984
H        0.83019968       0.27922990       0.23328991
H        1.76819930       0.15045994       1.72055928
H        4.67559826       1.65602935       0.31657988
H        3.98605845       0.92474965       1.77963924
H        3.50592859       2.57878911       1.27663946
