15
Properties=species:S:1:pos:R:3 atomization_energy=-1538.53 smiles=C.C.O.C.O.C.C.H.H.H.H.H.H.H.H pbc="F F F"
C        6.63257755      -0.09861996       1.25288954
C        5.13759812      -0.20911992       1.48747939
O        4.42212849       0.07229997       0.27605989
C        4.16111830       1.38253948       0.04377998
O        4.47760806       2.32858904       0.74562972
C        3.41651854       1.47635940      -1.22992954
C        3.03291876       2.66418886      -1.71530928
H        7.18775729      -0.37549985       2.15354912
H        6.91172708       0.92142966       0.97074964
H        6.94246709      -0.75259967       0.43124983
H        4.81022810       0.44454983       2.30431906
H        4.88576800      -1.23485946       1.77626935
H        3.19523866       0.55286977      -1.75049927
H        3.25566872       3.59063871      -1.19236953
H        2.48628901       2.73247903      -2.64954885
