17
Properties=species:S:1:pos:R:3 atomization_energy=-1639.23 smiles=C.O.C.C.C.O.C.H.H.H.H.H.H.H.H.H.H pbc="F F F"
C        1.90189929      -0.51610980      -1.24210957
O        2.19006902       0.08992996       0.01013999
C        3.06111879       1.23824953      -0.03324998
C        2.43588912       2.56306887      -0.52063978
C        3.16819884       3.28717858       0.62456976
O        4.38834840       3.97221833       0.27712990
C        3.31606874       1.92488919       1.32659954
H        1.24742947      -1.37446943      -1.07084957
H        2.82587894      -0.86269969      -1.71367935
H        1.39059945       0.19443992      -1.89755932
H        4.00201840       0.99885959      -0.54734977
H        1.34363946       2.60465887      -0.44219983
H        2.72698881       2.86487876      -1.53080946
H        2.51861895       3.97933836       1.17161957
H        4.95715806       3.31324869      -0.15518993
H        4.29752833       1.72517934       1.76636926
H        2.54674910       1.73068937       2.08237921
