15
Properties=species:S:1:pos:R:3 atomization_energy=-1507.08 smiles=C.O.C.C.C.C.O.H.H.H.H.H.H.H.H pbc="F F F"
C        0.89546963       2.20263916      -1.94510924
O        1.97605919       3.03960882      -1.55378939
C        2.68191891       2.53541892      -0.40164986
C        4.05379829       1.98186924      -0.66236974
C        3.90078839       3.33411876      -0.01361999
C        4.21223834       3.53277865       1.42028950
O        4.06339848       2.64371899       2.24893917
H        0.40944983       2.64958897      -2.81619901
H        0.16369994       2.12658904      -1.13523959
H        1.26354953       1.20863947      -2.21540914
H        2.10488918       2.09127919       0.40590984
H        4.40423820       1.94733922      -1.68675938
H        4.38436813       1.15031953      -0.05016998
H        4.12927839       4.19509824      -0.63340975
H        4.58136819       4.53284842       1.70224937
