17
Properties=species:S:1:pos:R:3 atomization_energy=-1634.75 smiles=C.O.C.O.C.C.C.H.H.H.H.H.H.H.H.H.H pbc="F F F"
C        4.07121848      -0.41712984       2.11047920
O        4.88338801      -0.08441997       0.99309962
C        4.66656834       1.25669949       0.56159980
O        5.13469783       2.22889902       1.49631943
C        6.51349739       2.09950923       1.81923922
C        5.27493799       1.50054939      -0.79632969
C        5.99819760       0.63575977      -1.52320937
H        4.23481846      -1.47109943       2.34972910
H        3.01121877      -0.27540988       1.87986925
H        4.35028827       0.18083993       2.98303892
H        3.58682851       1.41767939       0.44850982
H        6.74874733       2.84026889       2.58854903
H        7.14492708       2.30545910       0.95064962
H        6.73751758       1.10852957       2.22411911
H        5.09027794       2.49164903      -1.20340952
H        6.21418760      -0.36484987      -1.16040950
H        6.39312730       0.91615966      -2.49388898
