15
Properties=species:S:1:pos:R:3 atomization_energy=-1527.89 smiles=O.C.C.C.C.O.C.H.H.H.H.H.H.H.H pbc="F F F"
O        0.88762964       0.12097995      -0.29435990
C        2.06206920       0.09761996       0.05780998
C        2.98577874       1.28499945      -0.00672000
C        2.27486898       2.61671904      -0.07124997
C        3.30968880       3.55512864       0.50281980
O        4.02133839       2.81009890       1.49922944
C        3.80112840       1.41185949       1.26572954
H        2.52999909      -0.85360964       0.36824987
H        3.65196858       1.16019956      -0.86794963
H        1.38088949       2.61466885       0.56423975
H        1.96573922       2.89674895      -1.08212954
H        4.02968854       3.86795858      -0.26128990
H        2.86822896       4.44804846       0.95400960
H        4.77003829       0.90936961       1.18070955
H        3.28610870       1.00296962       2.14219926
