15
Properties=species:S:1:pos:R:3 atomization_energy=-1529.06 smiles=C.C.O.C.C.C.O.H.H.H.H.H.H.H.H pbc="F F F"
C        1.02661962       0.11061996      -0.17699994
C        2.53271897       0.17355994      -0.19795992
O        3.20616864      -0.82598965      -0.45782983
C        3.22996878       1.46832946       0.10227996
C        2.55964902       2.62290898       0.24472991
C        4.72306834       1.37206950       0.24435990
O        5.31008774       0.93283964      -0.97341962
H        0.60546973       0.78028968      -0.92930965
H        0.65715973       0.36272987       0.82099967
H        0.70647970      -0.90874963      -0.41222985
H        1.48308945       2.70801905       0.14176995
H        3.09060875       3.54766872       0.45742982
H        4.99629817       0.67377972       1.04325961
H        5.16649813       2.34142917       0.49257982
H        4.94161799       0.03877999      -1.13337952
