15
Properties=species:S:1:pos:R:3 atomization_energy=-1509.46 smiles=O.C.C.C.C.O.C.H.H.H.H.H.H.H.H pbc="F F F"
O        0.78792971       0.11043996      -0.13997994
C        2.16678919       0.00704000       0.25105990
C        3.04377884      -0.90493962      -0.56728981
C        2.60046891      -1.43587941      -1.89333920
C        2.78896894      -0.25888990      -2.84921883
O        2.72423890       0.93584964      -2.04235922
C        3.17044863       0.57911979      -0.70708972
H        0.67575976       0.85014967      -0.76785972
H        2.38706908       0.08688997       1.30965953
H        3.83939847      -1.45917943      -0.09500996
H        3.18442879      -2.30428904      -2.21707907
H        1.54761939      -1.73954935      -1.85472924
H        3.77652863      -0.28975990      -3.31977877
H        2.02298914      -0.22655991      -3.62686869
H        4.04880843       1.06840953      -0.30710988
