13
Properties=species:S:1:pos:R:3 atomization_energy=-1287.26 smiles=C.C.C.O.N.C.N.H.H.H.H.H.H pbc="F F F"
C        0.91672961      -1.04165958       0.94561965
C        1.15977956      -0.32835986      -0.34718986
C        0.87323962       1.13126953      -0.49757979
O       -0.25324990       1.49734945       0.31401988
N       -1.41863938       0.74342970       0.00957000
C       -1.18630954      -0.51822980      -0.18481994
N        0.00384000      -1.22725950      -0.19385992
H        1.49394941      -1.92874922       1.16563957
H        0.48617982      -0.52275981       1.79174925
H        1.91136927      -0.70150972      -1.02735958
H        1.73251928       1.72068936      -0.16468994
H        0.66175973       1.38871946      -1.54129937
H       -2.03561921      -1.17462951      -0.43604983
