15
Properties=species:S:1:pos:R:3 atomization_energy=-1545.23 smiles=C.C.O.C.C.C.C.H.H.H.H.H.H.H.H pbc="F F F"
C        2.93591884      -0.87836965       0.50722980
C        2.54139892       0.38706984       0.68730972
O        3.22210866       1.54530942       0.44304981
C        4.54287808       1.42642948      -0.09376996
C        5.10579783       2.82949888      -0.30328987
C        6.44912768       2.78833886      -0.89806965
C        7.54504725       2.75482902      -1.38831951
H        2.26405911      -1.69463931       0.75398970
H        3.91130834      -1.14646959       0.12051995
H        1.55785937       0.62751976       1.07834961
H        4.50814821       0.89390965      -1.05278959
H        5.18126808       0.87141968       0.60547976
H        5.13186819       3.36039855       0.65577973
H        4.42714837       3.40493855      -0.94426961
H        8.51650694       2.72647885      -1.82532924
