18
Properties=species:S:1:pos:R:3 atomization_energy=-1711.83 smiles=C.C.C.N.C.C.O.H.H.H.H.H.H.H.H.H.H.H pbc="F F F"
C        0.92842964       0.01280999      -0.10510996
C        2.41217907      -0.12122995      -0.07861997
C        3.15047888      -0.65786972      -1.27934950
N        3.21070884       0.76053972      -0.92493965
C        4.48029842       1.16145958      -0.29144989
C        5.29454817       1.99267924      -1.28855946
O        4.55238845       3.13722871      -1.70292927
H        0.60834978       0.80119969       0.58420975
H        0.46062982      -0.92502961       0.21095992
H        0.55082980       0.26048990      -1.10338958
H        2.78368890      -0.36769985       0.90991963
H        2.58578903      -0.89447967      -2.17362914
H        4.02049838      -1.28131945      -1.11429950
H        5.08327777       0.31432987       0.05970998
H        4.24397808       1.78831931       0.57781978
H        5.55047767       1.40715944      -2.17750924
H        6.22321753       2.33987910      -0.82618969
H        3.64425860       2.80477900      -1.85070922
