11
Properties=species:S:1:pos:R:3 atomization_energy=-1127.25 smiles=C.C.C.N.O.N.C.H.H.H.H pbc="F F F"
C        1.80040925       0.45635982      -0.79434971
C        2.53281890       0.07636997       0.51327978
C        3.32851877       1.31741947       0.32762987
N        3.58863848       2.39291913       1.05442955
O        3.23881879       3.44934860       0.17295994
N        2.50457899       2.95662893      -0.93756965
C        2.68613890       1.64877936      -0.84289970
H        0.73261971       0.68789973      -0.73955970
H        1.96130929      -0.24596990      -1.61940940
H        3.12853868      -0.84019969       0.44040983
H        1.95131924       0.04047999       1.43895949
