16
Properties=species:S:1:pos:R:3 atomization_energy=-1586.19 smiles=C.C.C.O.C.C.N.H.H.H.H.H.H.H.H.H pbc="F F F"
C       -1.49550945       0.78605968       0.15775993
C       -1.34216951      -0.71211975      -0.12942995
C        0.03060999      -1.21528953       0.19422992
O        0.99765963      -0.96275963      -0.84467964
C        1.15735958      -0.23776992       0.38002986
C        0.87214968       1.23031952       0.33835987
N       -0.37154986       1.56759935      -0.35972984
H       -2.42220898       1.13972957      -0.30908989
H       -1.60177939       0.95671964       1.23672949
H       -1.56427943      -0.91717965      -1.18365956
H       -2.08003922      -1.26342954       0.46404983
H        0.05604998      -2.18304917       0.67042977
H        1.99909918      -0.49588981       1.00567960
H        0.82348968       1.60652940       1.36650951
H        1.70633928       1.74533934      -0.15103994
H       -0.55816980       2.56200908      -0.24482990
