14
Properties=species:S:1:pos:R:3 atomization_energy=-1426.58 smiles=C.C.C.C.C.N.O.H.H.H.H.H.H.H pbc="F F F"
C       -1.38891943       0.68212974       0.01705999
C       -1.52830936      -0.83140966      -0.05342998
C       -0.25869989      -1.61338940       0.15179995
C        0.99129962      -1.14817951       0.29206989
C        1.39832949       0.28280987       0.32994987
N        0.83472965       1.34173941      -0.15511995
O       -0.34248988       1.07286961      -0.87248963
H       -2.31433914       1.15794952      -0.32348987
H       -1.20210951       1.02805961       1.04184958
H       -1.91179925      -1.10347953      -1.04496959
H       -2.27336912      -1.15808957       0.68052970
H       -0.39217983      -2.69449889       0.15705993
H        1.81262928      -1.84546931       0.42970982
H        2.34975913       0.44618982       0.86554964
