17
Properties=species:S:1:pos:R:3 atomization_energy=-1663.05 smiles=C.C.O.C.C.C.O.H.H.H.H.H.H.H.H.H.H pbc="F F F"
C        1.36286951      -0.35705986      -0.03983998
C        2.86759889      -0.13808995       0.07864996
O        3.50766866      -0.86742964      -0.97472959
C        3.30045878       1.33302944      -0.01088000
C        2.52539910       2.25492901       0.92791962
C        4.78883797       1.39807943       0.29207990
O        5.29436801       2.13081912       1.13712955
H        0.82180966       0.05973998       0.81436967
H        1.13737961      -1.42789943      -0.09621996
H        0.97239963       0.09497996      -0.95847965
H        3.21672870      -0.57666978       1.02074958
H        2.99269892      -0.74846971      -1.79255936
H        3.18780877       1.69270935      -1.04158961
H        2.58416907       1.90577925       1.96478919
H        1.47043945       2.31801914       0.64414972
H        2.92929892       3.27323879       0.89930967
H        5.43041795       0.76368969      -0.34457987
