15
Properties=species:S:1:pos:R:3 atomization_energy=-1520.96 smiles=C.C.O.C.C.C.O.H.H.H.H.H.H.H.H pbc="F F F"
C        0.89698968       0.30829987      -0.14299994
C        2.26881909       0.23785990      -0.74872973
O        2.53316888      -0.42863984      -1.74172937
C        3.30537873       1.07196954      -0.09279996
C        4.34051851       1.79852926      -0.91846963
C        3.24987872       2.57076901      -0.24390991
O        3.63966870       3.31434860       0.91827962
H        0.34890988       1.14591951      -0.58163976
H        0.96576963       0.43913981       0.94040964
H        0.36313985      -0.62498977      -0.34291985
H        3.64465854       0.67989976       0.86025964
H        4.30024846       1.69047938      -1.99700924
H        5.34553775       1.86091930      -0.51858981
H        2.47642891       2.99514881      -0.87705967
H        4.05374832       4.16028838       0.67151971
