19
Properties=species:S:1:pos:R:3 atomization_energy=-1852.22 smiles=C.C.C.O.C.C.C.H.H.H.H.H.H.H.H.H.H.H.H pbc="F F F"
C        0.98366963      -0.12638995      -0.28879987
C        2.46227894      -0.11216996       0.07704997
C        3.06915882       1.29406950      -0.00324000
O        2.38115898       2.16342915       0.88818962
C        4.54408826       1.26635949       0.31324989
C        5.18540783       1.99259925       1.24416948
C        6.65669739       1.91865925       1.49513941
H        0.59623977      -1.14989953      -0.25240990
H        0.82653967       0.26014990      -1.30096949
H        0.39437984       0.47928982       0.40720985
H        2.99993881      -0.79359972      -0.59324977
H        2.56421900      -0.50794979       1.09539951
H        2.94097883       1.69342938      -1.01555963
H        2.48170895       1.78847929       1.77910934
H        5.12901785       0.58902979      -0.30835987
H        4.63555834       2.70208901       1.85918932
H        7.15694714       1.21431957       0.82339966
H        6.84265746       1.59954941       2.52512910
H        7.10846724       2.90502895       1.35327953
