19
Properties=species:S:1:pos:R:3 atomization_energy=-1839.39 smiles=C.O.C.C.C.C.C.H.H.H.H.H.H.H.H.H.H.H.H pbc="F F F"
C        3.00611890      -0.43578983       1.15435948
O        2.73172885       0.31850986      -0.01853000
C        3.02408893       1.72559934       0.05113998
C        2.44758897       2.31889902      -1.24557951
C        2.31114917       2.39453910       1.23818948
C        4.53037809       1.90148925       0.01005999
C        5.30257785       2.59110893       0.86197966
H        2.90294898      -1.49534947       0.90397963
H        2.27897920      -0.20720992       1.93808926
H        4.02344839      -0.26922988       1.51824942
H        2.87364878       1.83120931      -2.13096926
H        2.63561890       3.39551877      -1.32140946
H        1.36486948       2.15342926      -1.29954950
H        2.71301899       2.05756925       2.20000911
H        1.24445953       2.14194920       1.24048948
H        2.40509916       3.48554855       1.20290953
H        5.02367813       1.39054949      -0.81683968
H        4.90036788       3.12609889       1.71519939
H        6.37831748       2.63163888       0.71673974
