15
Properties=species:S:1:pos:R:3 atomization_energy=-1534.51 smiles=C.O.C.O.C.C.C.H.H.H.H.H.H.H.H pbc="F F F"
C        1.67262934       0.03654999      -1.00888963
O        3.00308891       0.13760994      -0.49864981
C        3.44684875       1.42276941      -0.35812987
O        2.78837898       2.41951913      -0.62302978
C        4.85785814       1.40338949       0.21107992
C        5.46960802       2.77597892       0.26442990
C        6.61905765       3.11709873      -0.33049988
H        1.42524945      -1.02432959      -1.10087951
H        1.60518939       0.49508979      -2.00015922
H        0.96186959       0.49939980      -0.31695988
H        5.46808798       0.73414972      -0.40663983
H        4.80734799       0.99922963       1.22803958
H        4.92007799       3.53275872       0.82335967
H        7.20373692       2.40510900      -0.90516963
H        7.00034733       4.13193846      -0.25684989
