11
Properties=species:S:1:pos:R:3 atomization_energy=-1228.94 smiles=C.C.O.C.O.C.C.H.H.H.H pbc="F F F"
C        0.79441967      -0.35262987      -0.06650998
C        2.11390914      -0.17312993      -0.15097994
O        2.78715896       0.68453975       0.72025970
C        4.14180840       0.77646970       0.54820978
O        4.83254831       0.19172993      -0.27445989
C        4.73623801       1.69474932       1.49153940
C        5.23218803       2.45975916       2.27454902
H        0.28010990      -1.01995959      -0.74973969
H        0.20434992       0.16230994       0.68429972
H        2.73249897      -0.67023976      -0.88808964
H        5.67576771       3.13760873       2.96625889
