15
Properties=species:S:1:pos:R:3 atomization_energy=-1543.69 smiles=C.O.C.C.C.C.C.H.H.H.H.H.H.H.H pbc="F F F"
C        1.52064934       0.01423999      -0.66607976
O        2.90260884       0.34587985      -0.61149976
C        3.25963865       1.55422933      -0.04729998
C        2.40751901       2.47748896       0.43339982
C        4.75340814       1.79557926      -0.05237998
C        5.37967767       1.19809946       1.13754955
C        5.89814775       0.72129968       2.11161911
H        1.42848938      -0.96692959      -1.14130954
H        0.96768961       0.73563974      -1.27652944
H        1.09497963      -0.05682998       0.34003987
H        1.33291942       2.34704909       0.44358983
H        2.77975884       3.40681867       0.85487969
H        4.96834795       2.87098896      -0.07990997
H        5.19144814       1.37283949      -0.96429960
H        6.35380753       0.29870987       2.97643895
