15
Properties=species:S:1:pos:R:3 atomization_energy=-1494.26 smiles=O.C.C.C.C.C.O.H.H.H.H.H.H.H.H pbc="F F F"
O        0.76707970       0.02198999      -0.39047985
C        2.13043911      -0.05392998       0.00903000
C        2.78633888       1.31042952       0.04218999
C        2.12510912       2.44782893      -0.24360990
C        4.22088826       1.29905947       0.39412985
C        4.61837812       1.68441939       1.79826924
O        4.78665833       0.34916988       1.31365949
H        0.41885983      -0.88402963      -0.34539986
H        2.65569892      -0.70299974      -0.69937973
H        2.16609907      -0.50977979       1.00414958
H        1.07189952       2.44000894      -0.50887979
H        2.62122896       3.41258873      -0.22075992
H        4.87060794       1.61939930      -0.41481984
H        3.84853841       1.85143922       2.54108905
H        5.50961767       2.28694909       1.92999927
