15
Properties=species:S:1:pos:R:3 atomization_energy=-1473.01 smiles=C.C.C.C.C.N.H.H.H.H.H.H.H.H.H pbc="F F F"
C        0.82468970       0.07985996       0.06014998
C        2.28162919       0.07515997       0.38775984
C        3.19967868       0.81241966      -0.25798990
C        4.63140800       0.83352969       0.03539998
C        5.50364802      -0.27875990      -0.48575981
N        5.53095782       1.04467960      -1.09492954
H        0.50384978      -0.92687964      -0.22531990
H        0.58651978       0.76036971      -0.76362971
H        0.24678991       0.38968986       0.93633966
H        2.59393908      -0.57626977       1.19991953
H        2.87210880       1.46029940      -1.06984958
H        4.91272808       1.31641948       0.96523960
H        5.05376813      -1.06473962      -1.07994952
H        6.37175737      -0.56931975       0.09179996
H        6.35667754       1.56703943      -0.80013970
