17
Properties=species:S:1:pos:R:3 atomization_energy=-1682.78 smiles=C.O.C.C.C.C.C.H.H.H.H.H.H.H.H.H.H pbc="F F F"
C        1.05812961      -0.14633994      -0.56907978
O        2.43602892      -0.05289998      -0.23102991
C        2.91637881       1.29046948      -0.33927988
C        4.41400847       1.33854944       0.00000000
C        5.22666803       0.48596981      -0.97905959
C        4.89601820       2.69972896       0.00000000
C        5.29330771       3.82161845       0.00000000
H        0.75123974      -1.19105955      -0.47317981
H        0.89523963       0.17161993      -1.60271932
H        0.45485983       0.45996982       0.11251996
H        2.35238918       1.92454929       0.35749986
H        2.74022888       1.66084938      -1.35725943
H        4.55204830       0.90124966       0.99718960
H        5.11066782       0.84146967      -2.00935922
H        4.91424812      -0.56270980      -0.94580966
H        6.29466765       0.52136981      -0.73584973
H        5.65324764       4.82487794       0.00127000
