19
Properties=species:S:1:pos:R:3 atomization_energy=-1786.15 smiles=C.O.C.C.C.C.O.H.H.H.H.H.H.H.H.H.H.H.H pbc="F F F"
C        1.46159941       0.80852965       2.42758894
O        2.30979919       1.93774925       2.25350914
C        2.65758888       2.19029915       0.88437967
C        1.46577940       2.74899891       0.10985996
C        3.85355855       3.15976871       0.86753965
C        3.62280868       4.46457818       1.62861936
O        3.48999866       4.23363856       3.02444875
H        1.35810940       0.62573976       3.50055873
H        1.89660928      -0.08080997       1.96398917
H        0.46672981       1.00391959       2.01908924
H        2.98614891       1.25341956       0.41665984
H        0.97976959       3.56369856       0.65538975
H        0.70497972       1.97607925      -0.03807998
H        1.76694925       3.10848869      -0.87875962
H        4.12792841       3.38486863      -0.16978993
H        4.70607837       2.64733893       1.33302944
H        2.73287898       4.99100780       1.27448947
H        4.48009807       5.13101783       1.48784943
H        2.94639891       3.42294869       3.12080876
