17
Properties=species:S:1:pos:R:3 atomization_energy=-1662.2 smiles=O.C.C.C.C.C.O.H.H.H.H.H.H.H.H.H.H pbc="F F F"
O        1.92131920      -0.21951991      -1.33649950
C        2.37045912       0.12871995      -0.03173999
C        3.10805871       1.46411944      -0.05098998
C        2.25546899       2.62921903      -0.52728979
C        2.95598876       3.79647844       0.12255995
C        3.35405873       3.21741883       1.46401939
O        3.55772866       1.80913928       1.27162955
H        1.49017946      -1.08845951      -1.26094950
H        3.03316882      -0.66128976       0.33766988
H        1.50760937       0.17081993       0.64210975
H        3.99527838       1.38198940      -0.69080974
H        1.23208950       2.55227893      -0.13957995
H        2.20592905       2.70638899      -1.61691939
H        3.85210839       4.05879848      -0.45242982
H        2.33322916       4.69046815       0.21135991
H        4.26592838       3.67095852       1.86217932
H        2.55304905       3.33942856       2.20051907
