15
Properties=species:S:1:pos:R:3 atomization_energy=-1494.09 smiles=C.C.O.C.O.C.C.H.H.H.H.H.H.H.H pbc="F F F"
C        0.99929959      -0.03240999       0.15050994
C        2.51999896       0.00000000       0.00000000
O        3.09829880      -0.69635970       1.11402951
C        2.94654879      -0.75463971      -1.27865950
O        4.36506832      -0.95915962      -1.31037943
C        3.00201878       1.36116943       0.00000000
C        3.39929870       2.48306901       0.00000000
H        0.49719982       0.46517983      -0.68666974
H        0.68378976       0.46190981       1.07744955
H        0.63426975      -1.06416960       0.21154992
H        2.93424891      -0.14624993       1.90036927
H        2.65515893      -0.21958992      -2.18892924
H        2.49291902      -1.75172926      -1.30372950
H        4.60697830      -1.16836954      -0.38584985
H        3.76536852       3.48412868      -0.00761000
