19
Properties=species:S:1:pos:R:3 atomization_energy=-1841.43 smiles=C.C.O.C.C.C.C.H.H.H.H.H.H.H.H.H.H.H.H pbc="F F F"
C        2.01369919       4.13334849      -0.49268981
C        2.60174898       2.75350882      -0.27689990
O        3.97912842       2.78629902      -0.64160975
C        4.59353813       1.50277937      -0.49962980
C        6.07003782       1.58726933      -0.89304965
C        6.25771777       1.90818927      -2.35139903
C        6.89882740       1.12332955      -3.22488885
H        0.97290959       4.16986839      -0.15938994
H        2.05248919       4.40579812      -1.55238933
H        2.58817886       4.89028826       0.05218998
H        2.06936914       2.02225915      -0.89461966
H        2.50953907       2.46955895       0.77663971
H        4.06996843       0.76924969      -1.12422961
H        4.52050841       1.18995951       0.54796981
H        6.55924756       0.63810973      -0.64425974
H        6.56111734       2.37483909      -0.30847988
H        5.84228767       2.85547891      -2.69188902
H        7.33384699       0.17393993      -2.93128881
H        7.00323703       1.42359946      -4.26367809
