14
Properties=species:S:1:pos:R:3 atomization_energy=-1377.47 smiles=C.C.C.C.N.N.H.H.H.H.H.H.H.H pbc="F F F"
C        0.86915968       0.08903997      -0.04642998
C        2.35046919       0.04590998      -0.23711991
C        3.18616886       0.98117962       0.23887990
C        4.65681826       0.91409962       0.02353999
N        5.28984774      -0.16998994      -0.49879982
N        5.42253765       1.90679931       0.35366985
H        0.53577982      -0.80884967       0.48274981
H        0.36908985       0.12100995      -1.01920960
H        0.55042979       0.96315964       0.53022979
H        2.72815887      -0.79199968      -0.81673969
H        2.81332900       1.83700927       0.79003970
H        4.92429797      -1.06928953      -0.21461991
H        6.29311732      -0.09564997      -0.36374986
H        4.87167832       2.68336906       0.72900973
