11
Properties=species:S:1:pos:R:3 atomization_energy=-1198.02 smiles=C.C.C.C.C.N.H.H.H.H.H pbc="F F F"
C        1.00105960      -0.05527998       0.00362000
C        2.51999896       0.00000000       0.00000000
C        3.00201878       1.36116943       0.00000000
C        3.39929870       2.48306901       0.00000000
C        3.91010850       3.93100834       0.00000000
N        4.29611830       5.02630793       0.00000000
H        0.65860975      -1.09501963       0.00453000
H        0.58440979       0.43904983      -0.88085965
H        0.58855976       0.43924983       0.88993967
H        2.89559883      -0.53268977      -0.88088968
H        2.89978879      -0.53403980       0.87826966
