17
Properties=species:S:1:pos:R:3 atomization_energy=-1637.22 smiles=C.O.C.C.C.C.O.H.H.H.H.H.H.H.H.H.H pbc="F F F"
C        1.91202925      -0.52849981      -1.22190957
O        1.75495935       0.71340973      -0.54827980
C        3.00880876       1.24883950      -0.07247997
C        3.61669848       2.32908916      -0.92585965
C        2.99944878       2.68365899       0.39740984
C        1.72533932       3.46171864       0.45761983
O        3.93150846       2.99742887       1.44581937
H        0.93300965      -0.85161970      -1.58415935
H        2.30082907      -1.28456948      -0.53377978
H        2.58513903      -0.41532984      -2.07670920
H        3.67736850       0.57991975       0.46282981
H        3.09488879       2.61147887      -1.83205929
H        4.69603811       2.34974904      -1.01023960
H        1.07724957       3.26715862      -0.40301985
H        1.93873927       4.53515826       0.47601983
H        1.17103959       3.20837881       1.36638940
H        4.18384830       3.93621848       1.41851940
