16
Properties=species:S:1:pos:R:3 atomization_energy=-1555.58 smiles=C.O.C.C.C.N.C.H.H.H.H.H.H.H.H.H pbc="F F F"
C        0.87938964       1.04233961      -0.54614981
O       -0.24330991       0.39335986       0.07024998
C        0.93631960      -0.39418984      -0.11232996
C        1.60313933      -0.87270967       1.14537952
C        1.26254953      -0.27884988       2.53291907
N        1.47400944      -1.62627937       3.11890871
C        1.15269952      -2.20332903       1.79112927
H        0.80874969       1.25840954      -1.60460941
H        1.41000940       1.78541926       0.03494999
H        0.92901966      -1.16660953      -0.87030968
H        2.69159884      -0.86973966       0.97080962
H        0.23505991       0.08371997       2.65368885
H        1.94853918       0.49076981       2.89841888
H        2.43914899      -1.79062928       3.40603872
H        1.74267927      -3.08382886       1.52031941
H        0.08956996      -2.44078914       1.66521938
