15
Properties=species:S:1:pos:R:3 atomization_energy=-1517.47 smiles=O.C.C.C.C.C.O.H.H.H.H.H.H.H.H pbc="F F F"
O        2.19776916      -1.31041943      -0.83700965
C        3.38710857      -0.73711972      -0.31725987
C        3.04126890       0.61366974       0.21089992
C        3.73612862       1.73156938      -0.05711998
C        3.39165861       3.08508875       0.48681983
C        4.48615805       3.64388868       1.37744946
O        5.59195790       3.14148882       1.55042935
H        2.43272893      -2.20134924      -1.14544954
H        4.13435832      -0.69247973      -1.11601951
H        3.75885862      -1.37385941       0.49119982
H        2.16842909       0.65638974       0.85748968
H        4.61626812       1.67997937      -0.69616970
H        2.47096897       3.05485871       1.07957960
H        3.23976882       3.78839854      -0.33829986
H        4.23205846       4.60003818       1.86798924
