21
Properties=species:S:1:pos:R:3 atomization_energy=-2050.01 smiles=C.C.C.C.C.C.C.H.H.H.H.H.H.H.H.H.H.H.H.H.H pbc="F F F"
C        4.16856838      -1.47489941       1.36071951
C        4.13942841      -0.86656963      -0.03182999
C        3.95352841       0.62268977       0.02254999
C        4.91076797       1.57166933      -0.01690999
C        6.38783743       1.29478952      -0.10044996
C        4.53105838       3.03704891       0.01904999
C        4.59521815       3.61321857       1.42640942
H        4.26169830      -2.56368910       1.29596955
H        3.25188880      -1.24600948       1.91465930
H        5.01906804      -1.09751960       1.93866925
H        3.30541860      -1.29763948      -0.59910979
H        5.04600793      -1.14160956      -0.57978979
H        2.91373892       0.94039961       0.10248996
H        6.63199719       0.23088991      -0.05327998
H        6.91322744       1.77866928       0.72916971
H        6.79116724       1.68733937      -1.03966956
H        3.51766855       3.17823885      -0.37491984
H        5.19246806       3.60603849      -0.64490974
H        3.90719837       3.08808872       2.09927923
H        4.31059807       4.67070809       1.41423948
H        5.60394767       3.54111870       1.84680931
