17
Properties=species:S:1:pos:R:3 atomization_energy=-1639.77 smiles=C.O.C.O.C.C.C.H.H.H.H.H.H.H.H.H.H pbc="F F F"
C        2.61447910      -0.23797990       1.30148955
O        2.28340913       0.22447991      -0.00010000
C        2.79501883       1.53686945      -0.24319991
O        4.21965839       1.56718944      -0.18688993
C        4.83540823       2.76594901      -0.41011983
C        4.29327806       3.95658842      -0.70816969
C        5.10724822       5.19119783      -0.92743962
H        2.09079913      -1.18235954       1.47232942
H        2.29635902       0.47847980       2.06495915
H        3.68972844      -0.42284985       1.38104947
H        2.35939919       2.22902922       0.48836980
H        2.46154894       1.81958933      -1.24791949
H        5.90759755       2.62627886      -0.31282988
H        3.22059871       4.08119843      -0.81054969
H        6.17788773       5.01358791      -0.78502967
H        4.79543795       5.97120774      -0.22614992
H        4.95420781       5.56210762      -1.94544926
