11
Properties=species:S:1:pos:R:3 atomization_energy=-1224.22 smiles=C.C.C.C.C.N.H.H.H.H.H pbc="F F F"
C        1.34469951      -0.35661986      -0.75580971
C        2.56036893      -0.14666994      -0.23831990
C        3.22765869       1.13259957      -0.30214987
C        4.44599802       1.34727947       0.21520992
C        5.08124801       2.61643895       0.13910994
N        5.60286769       3.64992848       0.07919997
H        0.87745968      -1.33455945      -0.68654976
H        0.78294970       0.42536985      -1.25763955
H        3.07245881      -0.97207961       0.25278990
H        2.69865882       1.94655927      -0.79789970
H        4.99563807       0.55694978       0.71374975
