18
Properties=species:S:1:pos:R:3 atomization_energy=-1728.42 smiles=C.C.C.N.C.C.O.H.H.H.H.H.H.H.H.H.H.H pbc="F F F"
C        0.96156963       0.02770999       0.07127997
C        2.48270894       0.00602000      -0.07506997
C        3.01829893      -1.34063950      -0.60727977
N        2.69335886      -1.56421938      -2.02574914
C        3.18562862      -0.41756985      -2.80610879
C        2.64355901       0.91710963      -2.27668904
O        2.94387888       1.10174955      -0.88619968
H        0.62567977       1.01677958       0.40170984
H        0.63168973      -0.71579975       0.80427970
H        0.44980983      -0.18259992      -0.87298963
H        2.91028880       0.16956993       0.92099963
H        2.61513894      -2.16697920      -0.01148999
H        4.10960840      -1.36032941      -0.49299979
H        3.16023880      -2.41239910      -2.34641902
H        4.28175813      -0.40635984      -2.76953892
H        2.89201875      -0.54228977      -3.85332842
H        3.11114876       1.74363926      -2.82148888
H        1.56291936       1.00044959      -2.43433905
