18
Properties=species:S:1:pos:R:3 atomization_energy=-1716.28 smiles=C.C.C.N.C.C.O.H.H.H.H.H.H.H.H.H.H.H pbc="F F F"
C        1.02320962       0.06773997      -0.11627995
C        2.50786914       0.01118000      -0.02169999
C        3.37380869      -0.70461971      -1.02903961
N        2.79341880      -1.39761943      -2.17765912
C        3.41951875       0.81221969      -0.92749961
C        2.90171886       1.69645938      -2.01616926
O        4.55722816       1.38094942      -0.25173990
H        0.64415975       0.88616965       0.50443980
H        0.59253978      -0.86553968       0.26086989
H        0.65137977       0.22021991      -1.13212960
H        2.80796897      -0.07294997       1.01891961
H        4.23001836      -1.23585945      -0.61744973
H        1.99264921      -0.90265962      -2.56470903
H        2.43977906      -2.31747915      -1.89942921
H        2.03531919       1.28538955      -2.54272896
H        3.68688845       1.86787923      -2.76164903
H        2.60950893       2.66822893      -1.60453939
H        5.25379818       0.72201971      -0.09613996
