11
Properties=species:S:1:pos:R:3 atomization_energy=-1199.56 smiles=C.C.C.C.C.N.H.H.H.H.H pbc="F F F"
C        0.99072960      -0.02078999       0.02729999
C        2.51999896       0.00000000       0.00000000
C        3.00923873      -0.78818967      -1.15125960
C        3.41007854      -1.42871938      -2.08693922
C        3.00201878       1.36116943       0.00000000
N        3.38622869       2.44615901       0.00000000
H        0.60481979       0.51518980       0.90216966
H        0.61156978      -1.04842956       0.06930997
H        0.56449978       0.45266982      -0.86580967
H        2.87231900      -0.49345980       0.91495963
H        3.76904852      -1.98927920      -2.91910878
