15
Properties=species:S:1:pos:R:3 atomization_energy=-1482.56 smiles=C.O.C.C.C.C.O.H.H.H.H.H.H.H.H pbc="F F F"
C        1.00600958      -0.06679998      -0.06853997
O        2.42451908      -0.00461000      -0.10023996
C        2.89400889       1.33854944       0.00000000
C        4.33800832       1.33854944       0.00000000
C        5.52816805       1.33854944       0.00000000
C        6.97216748       1.33854944       0.00000000
O        7.45811711       2.65635902      -0.21961992
H        0.70508973      -1.11463951      -0.14901995
H        0.57896978       0.48475982      -0.91153966
H        0.62480972       0.33383987       0.87582968
H        2.51535908       1.78808931       0.92512966
H        2.51255897       1.91847922      -0.84800966
H        7.37263687       0.69199974      -0.78665966
H        7.36988696       0.98853962       0.95691961
H        7.00464706       2.98786880      -1.01310962
