21
Properties=species:S:1:pos:R:3 atomization_energy=-2048.01 smiles=C.C.C.C.C.C.C.H.H.H.H.H.H.H.H.H.H.H.H.H.H pbc="F F F"
C        0.93401960      -0.13453995      -0.06575997
C        2.43566909       0.12418995      -0.01306999
C        2.90004894       1.57343943      -0.07240997
C        2.05621915       2.61737889      -0.16974994
C        4.42019816       1.74321926      -0.00079000
C        5.04325803       1.60907933      -1.39259943
C        4.89286810       3.04546870       0.65665973
H        0.73846969      -1.21064954      -0.01008000
H        0.49786982       0.23422991      -1.00017960
H        0.41728985       0.34020988       0.77505968
H        2.89879889      -0.42425984      -0.84170964
H        2.81759894      -0.31933987       0.91490961
H        0.97932959       2.49438910      -0.21672992
H        2.40857906       3.64180846      -0.22000991
H        4.81509809       0.93199963       0.62523976
H        4.68738819       2.39646918      -2.06749924
H        4.80275808       0.64237974      -1.84829933
H        6.13519782       1.68317931      -1.33744953
H        4.66825795       3.92385854       0.04147998
H        5.97851778       3.02347879       0.80692968
H        4.42732803       3.18275886       1.63940930
