17
Properties=species:S:1:pos:R:3 atomization_energy=-1701.34 smiles=O.C.C.C.C.C.C.H.H.H.H.H.H.H.H.H.H pbc="F F F"
O        0.88470966       0.04006998       0.09605996
C        2.32785905       0.03178999       0.00198000
C        3.03419883       1.04159958       0.96654964
C        4.05227849      -0.05627998       1.31882950
C        3.02870886      -1.09542954       0.83019968
C        2.80768888       0.12169995      -1.41324946
C        2.35319916      -0.72812972      -2.34364918
H        0.68704976      -0.02765999       1.04422957
H        2.41271906       1.35120953       1.81608925
H        3.46255865       1.94249926       0.51628981
H        4.96575802      -0.02006999       0.71483969
H        4.32896829      -0.12429995       2.37391909
H        3.45577876      -1.93272924       0.26935989
H        2.40486903      -1.50795935       1.63288931
H        3.52341867       0.89236968      -1.68113934
H        1.62206935      -1.49407936      -2.10251916
H        2.69061904      -0.65974972      -3.37240876
