13
Properties=species:S:1:pos:R:3 atomization_energy=-1363.75 smiles=O.C.C.C.C.C.O.H.H.H.H.H.H pbc="F F F"
O        0.93618965       0.07410997       0.01389000
C        2.35832906       0.01759999       0.01498000
C        2.92738878       1.43281939       0.00000000
C        4.37138821       1.43281939       0.00000000
C        5.56154794       1.43281939       0.00000000
C        7.00406720       1.43846946      -0.00010000
O        7.62984720       2.48846890       0.00961000
H        0.61303973      -0.84349968       0.02417999
H        2.68297896      -0.54429978      -0.86774966
H        2.68242887      -0.52524978       0.90974963
H        2.54315893       1.98439924       0.86654963
H        2.54318895       1.96593919      -0.87803966
H        7.48497727       0.44762981      -0.00934000
