17
Properties=species:S:1:pos:R:3 atomization_energy=-1659.27 smiles=C.O.C.C.C.C.O.H.H.H.H.H.H.H.H.H.H pbc="F F F"
C        4.25819846      -0.29145989       2.42502904
O        3.83615854       1.06028963       2.27518919
C        3.65653855       1.42566946       0.90987964
C        2.80010885       2.68420882       0.86891965
C        4.98235788       1.66704928       0.17950992
C        5.94287750       2.66276899       0.77705972
O        5.25656777       1.06743957      -0.86289966
H        4.35607826      -0.50156981       3.49309855
H        5.22988778      -0.45061981       1.94925921
H        3.51392849      -0.97446963       2.00428925
H        3.11679871       0.62929977       0.38154984
H        3.21622884       3.47195874       1.50678941
H        1.79748928       2.47142897       1.25496951
H        2.70729890       3.07471869      -0.14932994
H        6.22142749       2.35207907       1.78725926
H        5.49097796       3.65723852       0.79691970
H        6.84874722       2.70781895       0.16480994
