17
Properties=species:S:1:pos:R:3 atomization_energy=-1700.23 smiles=O.C.C.C.C.C.C.H.H.H.H.H.H.H.H.H.H pbc="F F F"
O        0.98068959      -0.16017993       0.02585999
C        2.41086896      -0.22834991      -0.03135999
C        2.97607887      -0.66269972      -1.35191947
C        3.06873869       0.78228966      -0.93234961
C        4.39481818       1.38024945      -0.56404975
C        4.31626846       2.35987913       0.57293976
C        4.97801829       2.22253901       1.72982930
H        0.69208975       0.52731978       0.65068977
H        2.93762888      -0.54066980       0.86486967
H        2.27790907      -0.92178961      -2.13927928
H        3.86972844      -1.27452947      -1.33633953
H        2.43070902       1.49321942      -1.44568942
H        4.79251798       1.90522930      -1.44129949
H        5.11635789       0.58690976      -0.33031988
H        3.68089861       3.23053879       0.42722984
H        5.62725803       1.37308942       1.91873924
H        4.88344806       2.96547894       2.51542898
