14
Properties=species:S:1:pos:R:3 atomization_energy=-1495.25 smiles=C.C.C.C.O.N.C.H.H.H.H.H.H.H pbc="F F F"
C        1.01667960       0.03194999       0.06678997
C        2.49923890      -0.01735999      -0.01940999
C        3.25864875      -1.11676957      -0.10965995
C        4.65263814      -0.65847974      -0.16982993
O        5.63018760      -1.37321950      -0.25603989
N        4.62799799       0.71054974      -0.11045996
C        3.30591872       1.23830946      -0.01205000
H        0.57841976      -0.97087965       0.04046998
H        0.60467975       0.60152977      -0.77189967
H        0.70473975       0.51197981       0.99953962
H        2.97076881      -2.15215903      -0.13731995
H        5.48230786       1.24905953      -0.13677994
H        3.10498885       1.87646921      -0.87625965
H        3.20803866       1.79987923       0.92034962
