20
Properties=species:S:1:pos:R:3 atomization_energy=-1894.91 smiles=C.C.C.C.C.C.H.H.H.H.H.H.H.H.H.H.H.H.H.H pbc="F F F"
C        0.92688961      -0.07833997       0.09696997
C        2.44635910      -0.03043999       0.19763993
C        3.03471889       1.39090944       0.10105996
C        2.48143896       2.31022917       1.19534956
C        4.57471825       1.37724949       0.18956993
C        5.25352769       0.65672976      -0.96748964
H        0.58815975      -1.11812951       0.04416998
H        0.57611976       0.43835983      -0.80136969
H        0.45173982       0.37622984       0.97058959
H        2.84718882      -0.64964972      -0.61308976
H        2.75647901      -0.50247982       1.13873955
H        2.75087902       1.81935933      -0.86877967
H        2.66818906       1.89700923       2.19289917
H        1.40324944       2.46159916       1.08331953
H        2.94882886       3.30004874       1.14678955
H        4.89356806       0.91941965       1.13492959
H        4.94305830       2.41132897       0.20220992
H        5.05115802      -0.41742983      -0.94903962
H        6.33868734       0.78666969      -0.90332962
H        4.92121802       1.05859964      -1.92935923
