13
Properties=species:S:1:pos:R:3 atomization_energy=-1362.59 smiles=C.C.C.C.C.N.H.H.H.H.H.H.H pbc="F F F"
C        0.81585969       0.01879999       0.08048996
C        2.30198904       0.00172000       0.24360990
C        3.12021881       0.94522961      -0.25068990
C        4.61631808       0.93964962      -0.09102997
C        5.28197803       0.93207961      -1.40217944
N        5.82010775       0.93452962      -2.43220913
H        0.48886979      -0.88307966      -0.44586983
H        0.47125982       0.88921964      -0.48665981
H        0.33389986       0.03844998       1.06268956
H        2.71029886      -0.84183965       0.79695970
H        2.69720892       1.78529928      -0.80066966
H        4.94559826       0.07334997       0.49408980
H        4.91234807       1.83462928       0.46777982
