15
Properties=species:S:1:pos:R:3 atomization_energy=-1589.42 smiles=O.C.C.C.C.C.C.H.H.H.H.H.H.H.H pbc="F F F"
O        1.16193951      -0.10204996      -0.57566979
C        2.53682894      -0.04219998      -0.23064991
C        2.76016885       1.22093948       0.54933978
C        3.25091883       1.24344945       1.79966930
C        3.61741863      -0.00295000       2.56070907
C        3.36120879      -1.27148951       1.79246927
C        2.87543882      -1.28638954       0.53827979
H        0.68540973      -0.28299988       0.25367990
H        3.12157887      -0.00968000      -1.15471956
H        2.51473911       2.15329906       0.04702998
H        3.39900876       2.19343916       2.30423907
H        4.67910819       0.04213998       2.82684890
H        3.04185885      -0.03016999       3.49215862
H        3.58959860      -2.20796915       2.29256901
H        2.71692886      -2.23310916       0.03023999
