13
Properties=species:S:1:pos:R:3 atomization_energy=-1317.11 smiles=C.C.N.N.O.C.C.H.H.H.H.H.H pbc="F F F"
C        0.99582959       0.06686998       0.02612999
C        2.47779908      -0.01261000       0.00414000
N        3.23383878       1.09722954      -0.03275999
N        4.47238834       0.62862977      -0.12383995
O        5.51926782       1.50865944      -0.25690990
C        4.57472834      -0.71930974      -0.08228997
C        3.28122861      -1.17759957      -0.00633000
H        0.64444974       1.10409951       0.04555998
H        0.59858973      -0.44222983       0.90996966
H        0.58032978      -0.41695983      -0.86489964
H        6.00492778       1.26912945       0.54430981
H        5.52303765      -1.22774952      -0.13552994
H        2.95291890      -2.20686924       0.02309999
