19
Properties=species:S:1:pos:R:3 atomization_energy=-1785.2 smiles=C.C.O.C.C.O.C.H.H.H.H.H.H.H.H.H.H.H.H pbc="F F F"
C        5.68943801      -2.54200905       0.07824997
C        5.63309799      -1.44588939      -0.96756963
O        6.23931778      -0.27530990      -0.42364983
C        6.18432773       0.82467968      -1.33155949
C        6.57611743       2.09319918      -0.58236976
O        6.97354723       0.61321977      -2.50098908
C        8.36647683       0.49030982      -2.25535923
H        5.24295803      -3.46607867      -0.30071987
H        5.15472788      -2.23782902       0.98437962
H        6.72508724      -2.74367901       0.37147987
H        4.58934841      -1.23966952      -1.22899958
H        6.17229758      -1.76645935      -1.86529927
H        5.14840800       0.95130966      -1.66864931
H        7.55613721       1.98818926      -0.10354996
H        5.86000788       2.30035898       0.22033991
H        6.62002761       2.95304885      -1.25799950
H        8.84047605       0.12160995      -3.17005877
H        8.57559687      -0.22068991      -1.45050945
H        8.80235687       1.46685938      -2.02344914
