15
Properties=species:S:1:pos:R:3 atomization_energy=-1513.72 smiles=O.C.C.C.C.C.O.H.H.H.H.H.H.H.H pbc="F F F"
O        3.00188883       3.13598876      -1.08202961
C        2.36433908       2.28663922      -0.46825982
C        2.98020877       1.09479959       0.20907991
C        4.48363827       1.00692958       0.02753999
C        5.36002813       2.00542916       0.80002969
C        6.08482746       0.76169969       1.30431944
O        5.02916785      -0.09836996       0.80567970
H        1.26733954       2.36478899      -0.37668985
H        2.50159896       0.20294992      -0.21001991
H        2.71544894       1.14652952       1.27100944
H        4.77336805       0.89267967      -1.02547959
H        4.84710832       2.57386890       1.58110942
H        5.95977764       2.67756898       0.18196993
H        7.03862699       0.53975977       0.81636965
H        6.19198750       0.68968971       2.38963908
