15
Properties=species:S:1:pos:R:3 atomization_energy=-1557.23 smiles=O.C.C.C.C.C.C.H.H.H.H.H.H.H.H pbc="F F F"
O        0.98759962       0.18856992      -0.70643971
C        2.14171907       0.07210997       0.11925995
C        2.47780892      -1.33004954       0.77947971
C        3.85713837      -0.56051976       0.94251963
C        3.55687856      -0.14347994      -0.56114977
C        3.52462860       0.65460973       1.75130925
C        2.37783906       1.07806953       1.19655949
H        0.23830990       0.10190997      -0.09388996
H        2.46901895      -2.20605926       0.12093995
H        1.95007929      -1.57861942       1.70632931
H        4.76284836      -1.11364962       1.18235954
H        4.07126844       0.75168971      -0.92633965
H        3.62991861      -0.92919963      -1.32159946
H        4.08494833       1.08427952       2.56567899
H        1.77948935       1.93802921       1.44642938
