13
Properties=species:S:1:pos:R:3 atomization_energy=-1306.5 smiles=C.O.C.C.N.N.C.H.H.H.H.H.H pbc="F F F"
C        1.69508934      -0.45434981       0.17437993
O        0.87233969      -1.64388931       0.02915999
C       -0.17952994      -0.86293966      -0.59678979
C       -1.40586940      -0.54548978       0.27758990
N       -1.35757951       0.62780976       0.82159965
N       -0.14164995       1.17634952       0.50334979
C        0.64535977       0.42648982      -0.50084979
H        2.62931895      -0.56063981      -0.38707984
H        1.92640923      -0.24632990       1.22375954
H       -0.40573983      -1.21581955      -1.60595938
H       -2.24647919      -1.24811947       0.36270984
H       -0.18138993       2.19310911       0.42880985
H        0.89244967       0.93294966      -1.43429944
