16
Properties=species:S:1:pos:R:3 atomization_energy=-1485.53 smiles=C.C.C.C.N.N.H.H.H.H.H.H.H.H.H.H pbc="F F F"
C        0.93339963      -0.07182997      -0.06858998
C        2.45229898       0.03579999      -0.00695000
C        3.11016871      -0.75230968      -1.13296961
C        2.84992889       1.48842941      -0.12003996
N        3.49873866       2.06837925       0.83911965
N        3.77271843       3.36594858       0.57658979
H        0.47094983       0.50595981       0.73862973
H        0.61204977      -1.11347955       0.03188999
H        0.54303977       0.31660987      -1.01540962
H        2.80169879      -0.35342986       0.95759964
H        2.79250889      -0.38698985      -2.11511919
H        2.85620891      -1.81476930      -1.06482958
H        4.20005831      -0.65937974      -1.08485963
H        2.56633909       2.01774923      -1.04940961
H        4.46132815       3.70399853       1.25494945
H        2.94696893       3.94748835       0.74445972
