19
Properties=species:S:1:pos:R:3 atomization_energy=-1766.6 smiles=C.C.C.C.C.N.H.H.H.H.H.H.H.H.H.H.H.H.H pbc="F F F"
C        0.98465958      -0.06151997       0.01524999
C        2.50483889      -0.03217999       0.01718000
C        3.03743877       1.40034940      -0.00304000
C        4.56743799       1.42548942      -0.00246000
C        5.09623800       2.85870875      -0.02156999
N        6.55427765       2.86040896      -0.03066999
H        0.62546976      -1.09523953       0.03078999
H        0.58423978       0.42386983      -0.88042968
H        0.58136976       0.45157981       0.89402964
H        2.87604895      -0.58035975      -0.85678964
H        2.87331898      -0.55429979       0.90809963
H        2.66084900       1.94448927       0.87136966
H        2.66197894       1.91917931      -0.89318963
H        4.94229828       0.87979967      -0.87786965
H        4.94063794       0.90276964       0.88754965
H        4.73809820       3.40648862       0.85695965
H        4.73330794       3.38237862      -0.91235961
H        6.90357729       2.39971895       0.80866970
H        6.89123728       3.82136839       0.00961000
