15
Properties=species:S:1:pos:R:3 atomization_energy=-1568.98 smiles=C.C.O.C.C.C.C.H.H.H.H.H.H.H.H pbc="F F F"
C        1.32277949      -0.83831970      -0.05281998
C        2.82250880      -0.71160972       0.01473999
O        3.54025850      -1.70678931       0.09933996
C        3.37775869       0.69686973      -0.03419998
C        4.89959827       0.71052975       0.03990998
C        5.41438785       2.08822914      -0.00669000
C        5.83863794       3.21006867      -0.04423998
H        0.87058964      -0.28985989       0.77715971
H        1.03760959      -1.89122920       0.02415999
H        0.96478963      -0.44291983      -1.00650958
H        2.95188888       1.25912956       0.80516967
H        3.03867872       1.16352958      -0.96650965
H        5.32209769       0.13312995      -0.79112971
H        5.23588771       0.22485991       0.96378965
H        6.22043734       4.20429824      -0.07726997
