15
Properties=species:S:1:pos:R:3 atomization_energy=-1593.66 smiles=C.C.C.C.C.C.C.H.H.H.H.H.H.H.H pbc="F F F"
C        0.99999962       0.00000000       0.00000000
C        2.44399905       0.00000000       0.00000000
C        3.63415853       0.00000000       0.00000000
C        5.07815797       0.00000000       0.00000000
C        5.61787787      -0.76440972      -1.20580957
C        5.56017779       1.36116943       0.00000000
C        5.95745771       2.48306901       0.00000000
H        0.60602978       1.02088962       0.01165000
H        0.60593976      -0.52052980       0.87823963
H        0.60601976      -0.50029980      -0.88995967
H        5.43580775      -0.50612979       0.90559966
H        5.29666775      -0.31175987      -2.15391904
H        5.26779803      -1.80372931      -1.20244953
H        6.71449740      -0.78030968      -1.20386953
H        6.30743763       3.48953866      -0.00016000
