15
Properties=species:S:1:pos:R:3 atomization_energy=-1542.87 smiles=C.C.O.C.C.C.C.H.H.H.H.H.H.H.H pbc="F F F"
C        1.01191962      -0.02935999       0.23837991
C        2.51999896       0.00000000       0.00000000
O        2.74920885      -0.63888975      -1.26551948
C        3.99971840      -1.09648958      -1.57112934
C        5.13917822      -0.98615963      -0.88058966
C        3.00201878       1.36116943       0.00000000
C        3.39929870       2.48306901       0.00000000
H        0.74764969       0.42764985       1.19775957
H        0.64465974      -1.06153956       0.23117990
H        0.47381981       0.50163980      -0.55577978
H        2.98640881      -0.58825980       0.79986971
H        3.96572837      -1.59868934      -2.53318907
H        5.21213779      -0.47334981       0.07074997
H        6.05736776      -1.40533951      -1.28124955
H        3.75578851       3.48717861      -0.00916000
