11
Properties=species:S:1:pos:R:3 atomization_energy=-1137.66 smiles=C.N.C.N.O.C.C.H.H.H.H pbc="F F F"
C        2.14361913       0.44502982       0.69818974
N        1.92132930       0.30411988      -0.73685969
C        2.99764890       1.08509960      -0.99321961
N        3.41420870       2.05688922      -1.78370934
O        4.04404845       2.95731880      -0.87772967
C        3.80590856       2.53339900       0.41897984
C        3.23915868       1.31357950       0.32096987
H        2.42006897      -0.51119979       1.15381949
H        1.32140946       0.90468962       1.25137947
H        2.00621921      -0.65859972      -1.05038961
H        3.99190849       3.26661863       1.18843959
