14
Properties=species:S:1:pos:R:3 atomization_energy=-1490.51 smiles=C.C.C.C.N.C.O.H.H.H.H.H.H.H pbc="F F F"
C        0.99753958       0.02409999      -0.11757995
C        2.49943900      -0.03055999       0.08864996
C        3.14285873      -1.23980957      -0.55306981
C        4.04115851      -0.87592966      -1.47125940
N        4.09350841       0.47702981      -1.55165933
C        3.21072877       1.08610956      -0.67579975
O        3.04187879       2.28808912      -0.55399977
H        0.58256979       0.94080965       0.31598989
H        0.50474979      -0.83058965       0.35818987
H        0.73296969       0.01970999      -1.18159952
H        2.76729898       0.02643999       1.14815958
H        2.90705895      -2.25979900      -0.28570989
H        4.66276823      -1.50670943      -2.09097917
H        4.68536803       1.00995958      -2.17396903
