15
Properties=species:S:1:pos:R:3 atomization_energy=-1516.52 smiles=C.O.C.C.C.C.O.H.H.H.H.H.H.H.H pbc="F F F"
C        2.88746896      -1.03725961      -0.42655984
O        2.29784904       0.20618992      -0.07815997
C        3.24914873       1.27252949      -0.05375998
C        3.50716854       1.82910929      -1.46619941
C        3.05285873       3.23178884      -1.33638949
C        2.65295885       3.43149869      -0.08851997
O        2.74357883       2.35652918       0.76493968
H        2.10056914      -1.79612934      -0.44953984
H        3.62964862      -1.33146953       0.32190987
H        3.35148873      -0.98871959      -1.41600946
H        4.18212841       0.93113962       0.41283983
H        2.94735878       1.29584944      -2.24046917
H        4.57326836       1.79100928      -1.71245932
H        3.04733873       3.96638846      -2.12651914
H        2.26254916       4.33137806       0.35768987
