18
Properties=species:S:1:pos:R:3 atomization_energy=-1719.14 smiles=C.C.C.C.C.N.O.H.H.H.H.H.H.H.H.H.H.H pbc="F F F"
C        0.97874961      -0.10143996       0.31315987
C        2.38639914       0.17874993      -0.17242993
C        3.20976865       1.18391958       0.63602976
C        4.11079840      -0.01275000       0.97190960
C        5.54481788       0.00699000       0.44269983
N        6.35595739       1.01963957       1.12377958
O        3.28108882      -0.90503968       0.17798993
H        0.54410978      -0.94533963      -0.23203991
H        0.33637986       0.76960970       0.15093994
H        0.96058964      -0.34282986       1.38088949
H        2.41917899       0.36303986      -1.25319953
H        2.70432896       1.62693934       1.49864946
H        3.66912862       1.97484926       0.03683999
H        4.06469849      -0.30460988       2.02912924
H        5.55967767       0.20008992      -0.63601973
H        6.00383770      -0.97441960       0.60531979
H        6.04584783       1.94961929       0.84464967
H        7.31978709       0.94086964       0.79907966
