13
Properties=species:S:1:pos:R:3 atomization_energy=-1299.35 smiles=C.C.C.O.C.N.N.H.H.H.H.H.H pbc="F F F"
C        0.87282965      -1.04318959       0.91338963
C        1.14670956      -0.30764987      -0.37463984
C        0.91424964       1.14133957      -0.55469980
O       -0.36353986       1.57762939      -0.09464996
C       -1.30894947       0.62527976       0.02548999
N       -1.16016953      -0.65337974      -0.05365998
N        0.03845998      -1.23403951      -0.28074988
H        1.50147935      -1.88781920       1.16758959
H        0.46056981      -0.51156980       1.76232931
H        1.99661927      -0.64701973      -0.95640965
H        1.67715932       1.71078927      -0.01455999
H        0.99296961       1.41071946      -1.61338940
H       -2.28752919       1.07917953       0.23994990
