19
Properties=species:S:1:pos:R:3 atomization_energy=-1852.78 smiles=C.C.O.C.C.C.C.H.H.H.H.H.H.H.H.H.H.H.H pbc="F F F"
C        3.19361869      -1.51735944      -0.98258959
C        2.78372903      -0.50587979       0.07778997
O        2.82163877      -1.13651954       1.35874944
C        3.61338864       0.79223971       0.08705997
C        5.10894793       0.63145973       0.29209989
C        5.96452752       0.54857976      -0.94231960
C        5.65479797       0.64614976       1.52005939
H        3.20972878      -1.06692960      -1.97966916
H        2.48661906      -2.35507903      -0.99415960
H        4.17450826      -1.95355919      -0.76658967
H        1.73740933      -0.23159991      -0.09856996
H        3.75393841      -1.34794941       1.54404940
H        3.22537862       1.43504949       0.88856963
H        3.43881856       1.34120952      -0.84661969
H        5.70097762      -0.32290989      -1.54669939
H        7.02892738       0.46866983      -0.69750971
H        5.83258754       1.44672940      -1.55390937
H        5.04104811       0.74764969       2.41145917
H        6.72756715       0.56832979       1.67005934
