15
Properties=species:S:1:pos:R:3 atomization_energy=-1528.17 smiles=O.C.C.C.O.C.C.H.H.H.H.H.H.H.H pbc="F F F"
O        0.92947966       0.11657995      -0.31037987
C        2.28708913       0.00375000       0.09773996
C        3.06026869       1.26911948      -0.26776989
C        3.55328864       1.18657954      -1.70661937
O        4.37761827       0.03561999      -1.93920924
C        3.83591857      -1.12895957      -1.46358942
C        2.85210877      -1.20646955      -0.56266975
H        0.50473979       0.75573968       0.28603988
H        2.29679909      -0.13462995       1.18492954
H        2.43873895       2.16272918      -0.13836994
H        3.92892837       1.35596951       0.39544986
H        4.15968834       2.06947916      -1.93837919
H        2.71795888       1.17187960      -2.41675913
H        4.31814833      -1.99126921      -1.90464919
H        2.46403895      -2.17453904      -0.26429990
