15
Properties=species:S:1:pos:R:3 atomization_energy=-1552.63 smiles=C.C.O.C.C.C.C.H.H.H.H.H.H.H.H pbc="F F F"
C        1.08687955      -0.15577993       0.27973989
C        2.54673900       0.00202000      -0.14062995
O        2.71113887      -0.64146977      -1.40728940
C        2.99303881       1.45637943      -0.19202992
C        3.47286865       2.06125921      -1.29321952
C        2.94163893       2.22684908       1.01305959
C        2.90004894       2.87095893       2.02549921
H        0.90967967       0.22155992       1.29175953
H        0.79538969      -1.21166946       0.25133989
H        0.41823985       0.37262987      -0.40966983
H        3.18512876      -0.53763981       0.56828980
H        2.06010922      -0.24663991      -2.01161922
H        3.58156866       1.53643935      -2.23631907
H        3.79675853       3.09815875      -1.27665952
H        2.86668898       3.44418868       2.92246882
