15
Properties=species:S:1:pos:R:3 atomization_energy=-1615.69 smiles=C.C.C.C.C.C.C.H.H.H.H.H.H.H.H pbc="F F F"
C        0.99999962       0.00000000       0.00000000
C        2.44399905       0.00000000       0.00000000
C        3.63415853       0.00000000       0.00000000
C        5.04015789       0.00000000       0.00000000
C        5.68526798      -1.13192951      -0.32274988
C        5.78904779       1.19881949       0.34178988
C        5.27160772       2.38881900       0.68112975
H        0.60614977       1.02091959       0.01317999
H        0.60597976      -0.52174979       0.87752964
H        0.60595976      -0.49898979      -0.89065963
H        5.14172778      -2.03639916      -0.58062974
H        6.76820712      -1.19346957      -0.34030986
H        6.87443706       1.11320955       0.31733986
H        4.20187838       2.56641907       0.73180972
H        5.92302761       3.22398878       0.91922965
