19
Properties=species:S:1:pos:R:3 atomization_energy=-1850.05 smiles=C.C.O.C.C.C.C.H.H.H.H.H.H.H.H.H.H.H.H pbc="F F F"
C        4.21339831       0.07634998       0.51831979
C        5.48666764       0.78948969       0.10223996
O        5.26097802       2.19402911       0.20822992
C        6.27236762       3.04989888      -0.16871994
C        7.49172713       2.68599886      -0.60203973
C        5.89487754       4.50582828      -0.03152998
C        4.75712801       4.89550799      -0.96541964
H        4.33675827      -1.00872959       0.45921983
H        3.37836858       0.37250985      -0.12577995
H        3.93656846       0.34615988       1.54293940
H        5.72672752       0.52014979      -0.93261961
H        6.30465744       0.48905980       0.76664967
H        7.80173677       1.65379937      -0.70339975
H        8.23141653       3.43373863      -0.87161966
H        6.75608714       5.15334814      -0.23796990
H        5.59981802       4.70209809       1.00607960
H        5.01491820       4.69596796      -2.00980925
H        4.53814839       5.96383765      -0.86721963
H        3.84047845       4.34371807      -0.72780970
