19
Properties=species:S:1:pos:R:3 atomization_energy=-1865.6 smiles=O.C.C.C.C.C.C.H.H.H.H.H.H.H.H.H.H.H.H pbc="F F F"
O        2.06519924      -0.20967992      -1.45285941
C        2.33682917       0.06925997      -0.08605997
C        3.03568885       1.41626948       0.02615999
C        2.17161907       2.59310891      -0.42235985
C        2.90826888       3.79680849       0.14777994
C        3.52478858       3.31268877       1.45948942
C        3.39455865       1.78957932       1.46212943
H        1.62319941      -1.07521957      -1.48488946
H        2.97597894      -0.72748968       0.30821988
H        1.39033942       0.06264997       0.46474983
H        3.94557845       1.40342949      -0.58949975
H        1.16546950       2.52891912       0.00940000
H        2.07311916       2.65233887      -1.51060946
H        3.70414866       4.10749841      -0.53955980
H        2.24442900       4.65419805       0.29449988
H        4.57407833       3.62030857       1.52441942
H        3.00467885       3.74154845       2.32293909
H        4.31727829       1.30256952       1.79374935
H        2.59740888       1.49263944       2.15460916
