21
Properties=species:S:1:pos:R:3 atomization_energy=-1993.9 smiles=C.C.C.O.C.C.C.H.H.H.H.H.H.H.H.H.H.H.H.H.H pbc="F F F"
C        1.51899935      -0.48556980      -0.80437969
C        2.79377887      -0.53192981       0.03133999
C        3.61850870       0.75811967      -0.08715996
O        2.80081891       1.86284926       0.30789986
C        4.90497798       0.75210971       0.77045968
C        5.84342770      -0.40345983       0.41888982
C        5.65992786       2.08040914       0.62680976
H        0.98212958      -1.43601945      -0.72336969
H        1.75102929      -0.31594986      -1.86033932
H        0.84666965       0.30824988      -0.46598982
H        3.38267864      -1.39492945      -0.29413990
H        2.51132911      -0.69725971       1.07806953
H        3.88297835       0.91881961      -1.13930956
H        2.55644896       1.73142933       1.24014946
H        4.62318806       0.65909972       1.82779931
H        6.08398770      -0.40785985      -0.64966972
H        5.39950788      -1.37043944       0.67522974
H        6.78363718      -0.32677986       0.97620964
H        5.95393768       2.25687902      -0.41400983
H        6.56839760       2.07996920       1.23891947
H        5.04647778       2.92557880       0.95488960
