18
Properties=species:S:1:pos:R:3 atomization_energy=-1717.52 smiles=C.C.C.C.N.C.O.H.H.H.H.H.H.H.H.H.H.H pbc="F F F"
C        1.05581959       0.02942999      -0.08510997
C        2.54776902       0.03660998      -0.09814996
C        3.29853879      -0.62630977      -1.21838955
C        3.34179871       0.88209967      -1.07517957
N        2.60451908       1.68266935      -2.07798916
C        4.63161794       1.51105936      -0.56829976
O        5.43592786       1.88493922      -1.68560938
H        0.67961974       0.92027966       0.42697985
H        0.69299973      -0.85043967       0.45554983
H        0.62528973       0.00240000      -1.09104957
H        2.94141890      -0.07114997       0.90731961
H        2.72761888      -1.06223952      -2.03062923
H        4.18046832      -1.20183952      -0.95841960
H        2.35457916       1.11870962      -2.88812881
H        3.22361861       2.41463905      -2.43837913
H        5.20860818       0.82723970       0.06274997
H        4.41080841       2.41300899       0.01115999
H        5.52909764       1.08499955      -2.23029920
