19
Properties=species:S:1:pos:R:3 atomization_energy=-1909.98 smiles=C.C.C.C.C.C.C.H.H.H.H.H.H.H.H.H.H.H.H pbc="F F F"
C        0.88104966      -0.10044996      -0.01997999
C        2.39788905      -0.08409997       0.08919996
C        2.95625876       1.32635944      -0.10205996
C        4.45571833       1.33728943      -0.00673000
C        5.13656811       2.01170918       0.93161962
C        6.57785750       2.01547926       1.00064962
C        7.26034694       2.68477884       1.93601926
H        0.50186981      -1.11726956       0.12144995
H        0.55512978       0.24997991      -1.00440961
H        0.42604985       0.54077976       0.74155968
H        2.81828882      -0.76170971      -0.66400976
H        2.69087894      -0.47387980       1.07176957
H        2.51466896       2.00144926       0.64119978
H        2.66901898       1.70939930      -1.08863956
H        4.98926822       0.76469971      -0.76272970
H        4.59752798       2.58609889       1.68246938
H        7.12534719       1.44507941       0.25274991
H        6.76595733       3.26947880       2.70563906
H        8.34546672       2.65960905       1.94965928
