13
Properties=species:S:1:pos:R:3 atomization_energy=-1412.13 smiles=O.C.C.C.C.C.O.H.H.H.H.H.H pbc="F F F"
O        0.90680965      -0.15132995       0.21360992
C        2.12691909      -0.10281996       0.08862997
C        2.82833892       1.21953955      -0.12878995
C        4.33772823       1.24891949       0.02828999
C        4.97989815      -0.08602997      -0.04168999
C        4.25874854      -1.20301955      -0.03068999
O        2.86805889      -1.24579954       0.06082998
H        2.39275915       1.93668920       0.57974980
H        2.55995889       1.55412941      -1.13756961
H        4.60251809       1.71483931       0.98383963
H        4.75987791       1.89124927      -0.75261973
H        6.06483778      -0.13951994      -0.08457997
H        4.66543840      -2.20564922      -0.06207998
