12
Properties=species:S:1:pos:R:3 atomization_energy=-1217.83 smiles=C.O.N.C.C.O.C.H.H.H.H.H pbc="F F F"
C        0.70032970      -1.20319959       0.54621977
O       -0.47419982      -1.44373940      -0.23978991
N       -1.55315945      -0.56576976       0.04435998
C       -1.24431949       0.69413976       0.09865996
C        0.14055994       1.19729958       0.06367997
O        0.98131960       0.71850972      -0.99996959
C        1.20119948       0.17728993       0.31126988
H        1.45709946      -1.93422923       0.24721991
H        0.46510981      -1.36529946       1.60348931
H       -2.04805914       1.43432946       0.23997991
H        0.30155989       2.20888915       0.41074983
H        2.10007912       0.43877983       0.84561964
