13
Properties=species:S:1:pos:R:3 atomization_energy=-1451.79 smiles=O.C.C.C.C.C.C.H.H.H.H.H.H pbc="F F F"
O        1.83150934      -0.74612971      -0.77729969
C        2.00997920       0.13496994       0.06135997
C        3.18418882       1.10506960       0.06770997
C        2.75109881       2.45672891       0.57605977
C        2.94810896       3.38518858      -0.37506985
C        3.50173863       2.75708890      -1.54743935
C        3.65172861       1.44419940      -1.32096952
H        1.35060949       0.18826993       0.94576960
H        3.98873846       0.69712976       0.68659972
H        2.35898915       2.65116907       1.56330935
H        2.73924883       4.44176844      -0.29416989
H        3.74649843       3.27966870      -2.46034911
H        4.03407834       0.72092970      -2.02705925
