19
Properties=species:S:1:pos:R:3 atomization_energy=-1837.12 smiles=C.O.C.C.C.C.C.H.H.H.H.H.H.H.H.H.H.H.H pbc="F F F"
C        2.00934925      -0.54316978      -0.86313969
O        1.82070930       0.69587971      -0.19336993
C        3.05901889       1.39439943       0.04587998
C        3.44672864       2.41625901      -0.98727960
C        2.94423896       2.87224885       0.36345987
C        1.57828937       3.50637875       0.43272985
C        3.94135847       3.45501874       1.33098947
H        1.03021957      -1.00058964      -1.02733959
H        2.61458886      -1.21674952      -0.24920990
H        2.49067907      -0.38309985      -1.83249923
H        3.85656861       0.84546969       0.53929978
H        2.80021887       2.53683904      -1.84890922
H        4.50003829       2.52686892      -1.21574953
H        0.90689967       3.13677881      -0.34856986
H        1.65722931       4.59137817       0.31198987
H        1.11563951       3.30132881       1.40296948
H        4.92196795       2.97517880       1.24824955
H        3.59029857       3.32738858       2.35976911
H        4.07509832       4.52478846       1.14187956
