15
Properties=species:S:1:pos:R:3 atomization_energy=-1532.25 smiles=C.C.C.C.O.C.O.H.H.H.H.H.H.H.H pbc="F F F"
C        1.87197923      -0.71127974       0.34104986
C        3.35738874      -0.53594976       0.61087978
C        3.94308845       0.61417977      -0.20432992
C        5.41952784       0.79741970       0.05717998
O        6.10048764       0.12149995       0.81772965
C        6.10169782       1.91662925      -0.69230973
O        5.48796764       2.62377902      -1.47435942
H        1.47322948      -1.53669937       0.93879964
H        1.68920939      -0.93676964      -0.71431970
H        1.31645948       0.19545992       0.60044979
H        3.88159835      -1.46895941       0.37160985
H        3.51187856      -0.35208985       1.68089937
H        3.43131877       1.54837941       0.05275998
H        3.80609857       0.41832983      -1.27371949
H        7.17406731       2.02536926      -0.46709982
