19
Properties=species:S:1:pos:R:3 atomization_energy=-1839.85 smiles=C.O.C.C.C.C.C.H.H.H.H.H.H.H.H.H.H.H.H pbc="F F F"
C        1.51441941      -0.55236977      -0.92607962
O        2.23458909      -0.01586000       0.17414993
C        3.02753880       1.17643948      -0.05666998
C        4.23208823       0.85973965      -0.93941962
C        2.23227900       2.46084897      -0.44069982
C        3.10051880       3.25147876       0.55113979
C        3.41354860       1.92128930       1.25807949
H        0.82768967      -1.31522949      -0.54870978
H        2.20137901      -1.02411959      -1.63378938
H        0.93138962       0.22387991      -1.42926947
H        4.90257831       1.72019933      -1.04082959
H        3.91914852       0.57371978      -1.94877928
H        4.81451823       0.03367998      -0.51682980
H        1.17216953       2.42800907      -0.16139994
H        2.30804903       2.78156881      -1.48368937
H        3.97570832       3.72498845       0.09277996
H        2.57290904       3.99470836       1.15449953
H        4.44695839       1.80758934       1.59761933
H        2.74570901       1.70519937       2.10062920
