17
Properties=species:S:1:pos:R:3 atomization_energy=-1665.78 smiles=C.C.C.O.C.C.O.H.H.H.H.H.H.H.H.H.H pbc="F F F"
C        0.96320960      -0.20236992      -0.16236995
C        2.45506908      -0.25693990       0.18697992
C        2.64046896      -0.97581960       1.52538938
O        3.12418874      -1.02547959      -0.81711971
C        3.03896890       1.15960948       0.19929992
C        4.49911829       1.16430953       0.57183978
O        4.97487828       1.94594926       1.39099939
H        0.80506969       0.28346988      -1.13216960
H        0.39167984       0.34543985       0.59411975
H        0.54605979      -1.21203951      -0.25095990
H        2.17961923      -0.41964984       2.34837913
H        3.70033846      -1.12897950       1.75664934
H        2.19307908      -1.97628919       1.49232944
H        2.76214890      -0.78448968      -1.68831929
H        2.49797902       1.79992932       0.90519965
H        2.97293886       1.60820942      -0.79881970
H        5.14846805       0.47274980       0.00781000
