9
Properties=species:S:1:pos:R:3 atomization_energy=-1053.94 smiles=C.C.C.C.C.N.H.H.H pbc="F F F"
C        0.95470963      -0.04296998      -0.00000000
C        2.29142897      -0.02062999      -0.00000000
C        3.01317888       1.20192948      -0.00000000
C        3.62385863       2.23600921      -0.00000000
C        4.39948832       3.55837866      -0.00000000
N        4.98637802       4.55921804      -0.00000000
H        0.41783984      -0.98633960      -0.00000000
H        0.36370986       0.86806968      -0.00000000
H        2.85336892      -0.95046964      -0.00000000
