15
Properties=species:S:1:pos:R:3 atomization_energy=-1531.53 smiles=C.C.C.C.O.C.O.H.H.H.H.H.H.H.H pbc="F F F"
C        1.90102925      -0.88772962      -1.02564960
C        1.74840933       0.08847996       0.13317995
C        2.67581906       1.27032954       0.00526000
C        2.25088918       2.53396902      -0.12516995
O        4.05636828       0.99890961      -0.05998998
C        4.61544805       0.54786976       1.10186954
O        4.07923832       0.36896986       2.18494922
H        1.19299947      -1.71544932      -0.91661966
H        2.90979877      -1.31184951      -1.05968959
H        1.70322930      -0.39703986      -1.98413921
H        1.92830928      -0.43648983       1.07749963
H        0.70478972       0.42679984       0.16753993
H        1.19477955       2.78199879      -0.11066996
H        2.95510888       3.35025862      -0.24634990
H        5.68534772       0.36258986       0.91408966
