14
Properties=species:S:1:pos:R:3 atomization_energy=-1423.05 smiles=C.O.N.C.C.C.C.H.H.H.H.H.H.H pbc="F F F"
C        1.02505959       1.19219958      -0.14120995
O       -0.19855992       1.20100948       0.60190978
N       -1.27852955       0.85430967      -0.22921991
C       -1.41240945      -0.43559983      -0.30050987
C       -0.52615978      -1.46399946       0.37310986
C        0.92938964      -1.34270950       0.02211999
C        1.59335934      -0.19756992      -0.22701991
H        1.72980936       1.83250932       0.39852984
H        0.88033966       1.61953935      -1.13988954
H       -2.25322905      -0.82876965      -0.89472967
H       -0.87995965      -2.44307905       0.02914999
H       -0.67320976      -1.42606940       1.45628947
H        1.48249938      -2.27816922      -0.03254999
H        2.64582898      -0.25314990      -0.49441982
