17
Properties=species:S:1:pos:R:3 atomization_energy=-1649.99 smiles=O.C.C.C.C.C.O.H.H.H.H.H.H.H.H.H.H pbc="F F F"
O        2.51733913      -0.71373971       0.53322982
C        2.32935916       0.62410976       0.98792961
C        2.90121874       1.61282935      -0.02740999
C        4.40352814       1.54014937      -0.09957996
C        5.22317779       2.56705898       0.17732992
C        6.71326754       2.49530910       0.10310996
O        7.15699710       3.45444872      -0.84266969
H        2.17129911      -1.29979944       1.22825948
H        2.80850896       0.73513974       1.96693918
H        1.25298947       0.79047971       1.10315958
H        2.57919890       2.62509896       0.23956991
H        2.50361912       1.38927950      -1.02405959
H        4.81536808       0.57949980      -0.40459983
H        4.81209787       3.52586856       0.48224982
H        7.07338714       1.50806936      -0.20335993
H        7.15279730       2.73645880       1.07530952
H        6.68295750       3.26467871      -1.67050938
