15
Properties=species:S:1:pos:R:3 atomization_energy=-1495.78 smiles=O.C.C.C.O.C.C.H.H.H.H.H.H.H.H pbc="F F F"
O        0.60890977       0.78454967      -0.45436984
C        1.65197930      -0.03388999       0.09643996
C        2.15824904      -1.11611956      -0.80792967
C        3.00792888       0.09751996      -0.54773981
O        4.12597839      -0.07365997       0.34762987
C        5.25781782      -0.48581980      -0.30707988
C        6.40818744      -0.68255971       0.33609987
H        0.52061978       1.61472941       0.04570998
H        1.61562935      -0.25377991       1.15884959
H        1.70390933      -1.21496957      -1.78590929
H        2.45387908      -2.05429916      -0.35485985
H        3.09637880       0.83896970      -1.33671953
H        5.14764798      -0.64584974      -1.37197942
H        6.48337761      -0.51603978       1.40595949
H        7.29428701      -1.01478958      -0.19330992
