13
Properties=species:S:1:pos:R:3 atomization_energy=-1293.27 smiles=C.N.C.C.N.O.C.H.H.H.H.H.H pbc="F F F"
C        1.83960930      -0.16948993       0.16759993
N        0.98869960      -1.30092950       0.57597978
C       -0.04286998      -0.91098965      -0.40069983
C       -1.31086946      -0.30286989       0.21749991
N       -1.32112950       0.99017958       0.28326988
O       -0.07445997       1.49451943      -0.23035991
C        0.71477970       0.37401986      -0.72009972
H        2.73482899      -0.47017981      -0.38873986
H        2.14312910       0.48167980       0.99232963
H        1.40853945      -2.21513914       0.41681982
H       -0.20134992      -1.59987933      -1.23272953
H       -2.14382907      -0.94159964       0.54310979
H        0.98182962       0.51409979      -1.77186933
