20
Properties=species:S:1:pos:R:3 atomization_energy=-1896.03 smiles=C.C.C.C.C.C.H.H.H.H.H.H.H.H.H.H.H.H.H.H pbc="F F F"
C        0.95644964      -0.11342996      -0.00534000
C        2.47297905       0.03554998       0.00517000
C        3.00861875       1.49048945      -0.01148000
C        2.55748907       2.23370921      -1.27965949
C        2.53653902       2.27011910       1.22691948
C        4.54867817       1.43618940       0.00216000
H        0.68947970      -1.17562949       0.00784000
H        0.51311981       0.32412988      -0.90416963
H        0.49826980       0.34990987       0.87288964
H        2.87308886      -0.50711981      -0.86130966
H        2.85841882      -0.48163981       0.89360964
H        2.83993884       1.68135937      -2.18277917
H        3.01902893       3.22619870      -1.33953946
H        1.47271939       2.38086905      -1.29976953
H        2.80374899       1.74427930       2.15021911
H        1.45166941       2.41751916       1.22458958
H        2.99726889       3.26399867       1.26562949
H        4.91887790       0.92501964       0.89810965
H        4.98256782       2.44261905      -0.00883000
H        4.93364786       0.89932967      -0.87227963
