17
Properties=species:S:1:pos:R:3 atomization_energy=-1670.74 smiles=C.C.C.O.C.C.O.H.H.H.H.H.H.H.H.H.H pbc="F F F"
C        2.35891901      -1.07191958       0.97087965
C        2.52751893      -0.11686996      -0.19408992
C        3.02315884       1.22873955       0.29094989
O        2.28794907       1.98326918       0.93221966
C        4.47334820       1.56606934       0.00786000
C        4.82504801       2.97103881       0.46992981
O        4.82315805       3.03906882       1.89090925
H        2.00643924      -2.04585918       0.61896977
H        1.63284932      -0.68569972       1.69346938
H        3.30687859      -1.21804953       1.49855938
H        1.57669943       0.03510998      -0.71605971
H        3.23509867      -0.52661978      -0.92236966
H        4.63476804       1.48617937      -1.07184956
H        5.09366776       0.82750969       0.52705978
H        4.12970836       3.72200842       0.08004997
H        5.83169782       3.23215876       0.13009994
H        3.88667853       2.95333878       2.16338903
