19
Properties=species:S:1:pos:R:3 atomization_energy=-1785.66 smiles=C.C.C.C.O.O.C.H.H.H.H.H.H.H.H.H.H.H.H pbc="F F F"
C        0.42165982       0.24147991      -0.33900985
C        1.77984930       0.01861999       0.30726989
C        2.59631906       1.30292948       0.50537980
C        1.85763924       2.34243900       1.36271950
O        2.69786903       3.48369871       1.55302937
O        3.82493838       1.01587958       1.20656947
C        4.82224814       0.41895985       0.38632985
H       -0.04297998      -0.72126972      -0.57666978
H        0.51594980       0.81140970      -1.26818952
H       -0.25733991       0.77560970       0.33161986
H        2.34586919      -0.67809975      -0.32213986
H        1.65217941      -0.49362980       1.26954946
H        2.84341899       1.76107926      -0.45991983
H        1.62150942       1.94221930       2.35380905
H        0.93561963       2.68570893       0.88705962
H        3.56309852       3.11250883       1.81699928
H        5.73628785       0.32560986       0.97894964
H        5.03646779       1.04900961      -0.48247982
H        4.52166813      -0.58078978       0.06643997
