17
Properties=species:S:1:pos:R:3 atomization_energy=-1718.98 smiles=C.O.C.C.C.C.C.H.H.H.H.H.H.H.H.H.H pbc="F F F"
C        1.00361963       0.12616995      -0.15360993
O        2.41820903       0.06954997      -0.28412988
C        3.07763867       1.26533956      -0.19219993
C        4.40440828       1.37163940      -0.30301987
C        4.86124796       2.77819893      -0.11927995
C        3.55842863       3.57397854      -0.20075992
C        2.42671915       2.58299900       0.08378997
H        0.61865978      -0.89633967      -0.20960992
H        0.55948980       0.69848969      -0.97426959
H        0.71219973       0.54394980       0.81537969
H        5.07024789       0.53745977      -0.47220981
H        5.34545802       2.89704897       0.85531969
H        5.55998804       3.08541880      -0.90279966
H        3.44130857       3.98687852      -1.21143946
H        3.54886855       4.41982824       0.49445981
H        1.57280936       2.78806887      -0.56790978
H        2.10596916       2.64254893       1.12931951
