15
Properties=species:S:1:pos:R:3 atomization_energy=-1580.88 smiles=O.C.C.C.C.C.C.H.H.H.H.H.H.H.H pbc="F F F"
O        0.99545961      -0.12395996       0.09057997
C        2.20632925      -0.04055998       0.03958999
C        3.20426884      -1.19183951       0.07076997
C        4.52693832      -0.38356985      -0.02447999
C        4.31089835       0.71944972      -1.13087955
C        3.22930868       1.18095948      -0.07371997
C        4.38516852       0.84727966       0.95253965
H        3.06931880      -1.84431931      -0.79452968
H        3.13488885      -1.73801934       1.01396963
H        5.46546777      -0.93717961      -0.02424999
H        3.92708838       0.36975985      -2.09350917
H        5.14615821       1.40662942      -1.30630946
H        2.83306887       2.19153910      -0.12140995
H        5.22791808       1.54699941       0.98314963
H        4.07236835       0.61878973       1.97544918
