15
Properties=species:S:1:pos:R:3 atomization_energy=-1491.06 smiles=C.O.C.C.C.C.O.H.H.H.H.H.H.H.H pbc="F F F"
C        1.79351935       0.15232993      -1.30441950
O        3.07470885       0.33290987      -0.71352971
C        3.38367863       1.56693938      -0.16878993
C        2.55101905       2.62471895      -0.17169994
C        4.72543823       1.64685938       0.44809981
C        5.91996784       1.77847927      -0.46490981
O        5.53974804       2.83364898       0.42428984
H        1.73120930      -0.87966966      -1.66232930
H        1.66249937       0.81518969      -2.16564916
H        0.99692963       0.30024988      -0.56810976
H        1.56187938       2.61386896      -0.60894976
H        2.86663877       3.56295848       0.27715989
H        4.83502822       1.00582961       1.31680946
H        5.75912786       1.93801924      -1.52362937
H        6.81022734       1.21291951      -0.22291992
