17
Properties=species:S:1:pos:R:3 atomization_energy=-1615.87 smiles=C.C.C.C.C.N.H.H.H.H.H.H.H.H.H.H.H pbc="F F F"
C        2.96057892       0.50551981      -1.95089924
C        2.73391883      -0.16879993      -0.60650978
C        3.36705858       0.59012976       0.56053975
C        4.86661807       0.59195979       0.50053980
C        5.62224774       1.82607929       0.07509997
N        5.59534772       1.40648950       1.47227946
H        2.43508898      -0.04424998      -2.73963893
H        4.02278854       0.52856980      -2.21276925
H        2.58291902       1.53266939      -1.94489918
H        3.12498888      -1.19218949      -0.64597975
H        1.65446931      -0.24489990      -0.43059982
H        3.06136885       0.10193996       1.49420944
H        2.97092879       1.61281938       0.59545975
H        5.28852805      -0.38502984       0.29749988
H        5.06887823       2.72829891      -0.15408994
H        6.55917742       1.70613931      -0.45157981
H        6.47444761       0.95516963       1.73612926
