15
Properties=species:S:1:pos:R:3 atomization_energy=-1517.76 smiles=O.C.C.C.C.O.C.H.H.H.H.H.H.H.H pbc="F F F"
O        1.20132956       0.19064992       0.40680984
C        2.56657905       0.00768999       0.04969998
C        2.80756878      -1.43922948      -0.40679984
C        2.51970903      -1.43970942      -1.91848931
C        2.87908879      -0.05401998      -2.35690919
O        1.87293923       0.94262965      -2.14743917
C        2.90381877       0.83211966      -1.15629953
H        0.73806968       0.47274980      -0.40535985
H        3.18736870       0.25825991       0.91499963
H        2.19054921      -2.17186912       0.12219995
H        3.86403837      -1.69363932      -0.25351990
H        3.11980877      -2.19796901      -2.43063912
H        1.46190940      -1.64352936      -2.11375913
H        3.60034867       0.05150998      -3.14876883
H        3.64220866       1.60610939      -1.04130959
