17
Properties=species:S:1:pos:R:3 atomization_energy=-1617.95 smiles=C.C.C.C.C.N.H.H.H.H.H.H.H.H.H.H.H pbc="F F F"
C        1.14772960       0.13485995       0.11088996
C        2.64864903      -0.07796997      -0.08756996
C        2.90863880      -0.84439968      -1.38474940
C        3.36428874       1.24796946      -0.10547996
C        3.77796843       1.90716922       1.18638953
N        4.76677817       1.30239946       0.29979987
H        0.95085962       0.66091972       1.05120955
H        0.61763974      -0.82273969       0.14207994
H        0.72023971       0.73586973      -0.69941973
H        3.01652883      -0.68963974       0.74683971
H        2.55282902      -0.28416988      -2.25661912
H        2.40239896      -1.81527926      -1.37325950
H        3.98022833      -1.02411959      -1.52255936
H        3.07319890       1.88304926      -0.93491961
H        3.60113847       1.38777939       2.11998906
H        3.77128846       2.98806889       1.24342951
H        5.27033799       2.01650915      -0.22955991
