12
Properties=species:S:1:pos:R:3 atomization_energy=-1222.34 smiles=C.O.C.C.N.O.C.H.H.H.H.H pbc="F F F"
C        1.85106930      -0.40305985      -0.01162000
O        1.01892957      -1.57676932       0.18340992
C       -0.05806998      -0.95262960      -0.55622981
C       -1.20745957      -0.36525987       0.26944989
N       -1.13458958       0.91279962       0.46607980
O        0.06230997       1.41489946      -0.15663994
C        0.75248972       0.30813987      -0.79888972
H        2.75169885      -0.64397978      -0.58473978
H        2.12963922       0.05586998       0.94150961
H       -0.35496987      -1.52342940      -1.43775940
H       -2.02638918      -1.00105960       0.63520975
H        0.98756960       0.52469979      -1.84377932
