11
Properties=species:S:1:pos:R:3 atomization_energy=-1227.06 smiles=C.C.O.C.O.C.C.H.H.H.H pbc="F F F"
C        0.79684968       0.57739977       0.17547992
C        2.09742913       0.49510982      -0.13608994
O        2.66752896      -0.63227974      -0.74837969
C        2.56471887      -1.80305924      -0.05548998
O        2.06922922      -1.99899925       1.04347958
C        2.95329891       1.61861934       0.03102999
C        3.68305857       2.56213903       0.17474993
H        0.37581984       1.47712939       0.61253974
H        0.12321995      -0.25672989       0.01333000
H        3.03154885      -2.59576899      -0.66159975
H        4.33089812       3.39690861       0.30550988
