15
Properties=species:S:1:pos:R:3 atomization_energy=-1504.59 smiles=O.C.C.C.C.C.O.H.H.H.H.H.H.H.H pbc="F F F"
O        1.04633956      -0.07920997       0.22674992
C        2.48415908      -0.03267999       0.09359996
C        3.13891883      -0.97021961      -0.97318961
C        4.64157796      -0.74810969      -0.86083969
C        4.62571793       0.78102971      -0.82014970
C        3.11950875       0.97904963      -0.91635963
O        2.67365885       0.03497999      -1.98731922
H        0.75668971       0.84496969       0.15890993
H        2.94885889      -0.04844998       1.08649953
H        2.71807899      -1.96555918      -1.12263955
H        5.06327799      -1.18415955       0.04871998
H        5.18184795      -1.12885952      -1.73279937
H        5.15581796       1.21782950      -1.67199939
H        5.04236781       1.17700949       0.11010995
H        2.68144882       1.97291918      -1.00424957
