17
Properties=species:S:1:pos:R:3 atomization_energy=-1625.6 smiles=C.C.C.C.C.N.H.H.H.H.H.H.H.H.H.H.H pbc="F F F"
C        0.87392962       1.06554961      -1.22065952
C        2.35854909       0.89287964      -1.20597952
C        3.14780871       1.32093950      -0.20585991
C        4.64259838       1.19463950      -0.09243996
C        5.34820792       0.47814982      -1.24549952
N        5.19341783       2.54068911       0.06264997
H        0.57558980       1.65082931      -2.09567922
H        0.50522979       1.57698935      -0.32594988
H        0.38603986       0.08662996      -1.27889947
H        2.78223901       0.39270986      -2.07214920
H        2.67913898       1.81552932       0.64519973
H        4.85355791       0.63767975       0.82862967
H        5.20323806       0.99774959      -2.19973912
H        4.97635795      -0.54660981      -1.35525945
H        6.42660762       0.41461984      -1.06226955
H        5.03525812       3.05953869      -0.80059970
H        6.20442743       2.47993910       0.16878993
