13
Properties=species:S:1:pos:R:3 atomization_energy=-1288.68 smiles=C.O.N.C.C.N.C.H.H.H.H.H.H pbc="F F F"
C        0.70303973      -1.19326959       0.53451980
O       -0.45129981      -1.43935943      -0.27795988
N       -1.55066944      -0.58380975      -0.00920000
C       -1.26452946       0.67819974       0.11065996
C        0.11057995       1.21558955       0.18007992
N        1.01686961       0.91117965      -0.93050961
C        1.19404955       0.20313993       0.34203988
H        1.47740948      -1.90762922       0.23823991
H        0.44960982      -1.38175940       1.58429940
H       -2.09033913       1.39614948       0.23622990
H        0.22847991       2.18403906       0.64940975
H        1.71912932       1.64248938      -1.04132959
H        2.06773921       0.44221983       0.93048961
