17
Properties=species:S:1:pos:R:3 atomization_energy=-1641.32 smiles=O.C.C.C.C.O.C.H.H.H.H.H.H.H.H.H.H pbc="F F F"
O        2.55264910       3.43631872      -0.38846984
C        2.23361913       2.06233919      -0.55187981
C        3.04354871       1.23055948       0.43333982
C        4.52258813       1.26116954       0.07355997
C        5.32997800       2.50395901       0.47999981
O        6.34900769       1.67496933       1.09806955
C        5.46415767       0.52883979       1.03706961
H        1.99607928       3.93540850      -1.01184960
H        2.44269904       1.77279930      -1.58646932
H        1.16426954       1.93529924      -0.35708986
H        2.68508895       0.19498992       0.40096985
H        2.89169879       1.60371931       1.45333947
H        4.70218793       0.96346963      -0.96810962
H        4.87052820       3.16886878       1.21835952
H        5.73194775       3.09033875      -0.35022985
H        5.96533751      -0.34926986       0.62017976
H        5.06213796       0.28983989       2.02672920
