15
Properties=species:S:1:pos:R:3 atomization_energy=-1471.88 smiles=C.C.C.C.C.N.H.H.H.H.H.H.H.H.H pbc="F F F"
C        1.45497937       0.45414984      -1.33997953
C        2.27949901      -0.11328995      -0.45048983
C        3.15465874       0.64037976       0.51193981
C        4.62214795       0.38206986       0.31886987
C        5.54411791       0.27598990       1.50724941
N        5.19269819      -0.90433964       0.72465973
H        0.84920968      -0.16068994      -1.99940917
H        1.36275949       1.53137935      -1.43169942
H        2.33451908      -1.19915951      -0.39308983
H        2.84777877       0.37025984       1.53022935
H        2.98349892       1.72007935       0.41749982
H        5.00540783       0.81506970      -0.59814979
H        5.12488820       0.31640987       2.50505892
H        6.56090740       0.63498978       1.41327949
H        5.95148755      -1.17081955       0.09418996
