21
Properties=species:S:1:pos:R:3 atomization_energy=-2046.88 smiles=C.C.C.C.C.C.C.H.H.H.H.H.H.H.H.H.H.H.H.H.H pbc="F F F"
C        1.45818940      -1.42178948       0.31167988
C        2.91298874      -1.06277964       0.62694975
C        3.82859844      -2.21551915       0.21318991
C        3.28316879       0.26255990      -0.06896997
C        4.70057805       0.78028968       0.20734992
C        4.95000800       1.07213961       1.65914930
C        5.89596761       0.47260982       2.39298903
H        0.78081971      -0.62682976       0.64158975
H        1.16427951      -2.34344908       0.82537970
H        1.30884955      -1.57081935      -0.76330969
H        2.99156873      -0.93452962       1.71308927
H        3.82573852      -2.35485900      -0.87324966
H        3.50267856      -3.15426864       0.67464975
H        4.86056818      -2.04137917       0.53187978
H        2.56272898       1.03514962       0.23176990
H        3.16869871       0.14496994      -1.15458948
H        4.84287825       1.71341932      -0.35151987
H        5.44248797       0.07684997      -0.18709992
H        4.31991818       1.82721932       2.12491911
H        6.55058756      -0.28430989       1.97237919
H        6.03195750       0.72772971       3.43972872
