17
Properties=species:S:1:pos:R:3 atomization_energy=-1646.75 smiles=C.C.C.O.C.C.O.H.H.H.H.H.H.H.H.H.H pbc="F F F"
C        0.96679964       0.21091991       0.11686996
C        2.47628913      -0.00151000      -0.01382999
C        2.96211889      -0.93951961       1.09333960
O        2.70645889      -0.65813972      -1.26407955
C        3.18055878       1.33129946      -0.06744997
C        3.94364837       1.95157927       1.07695952
O        4.61338802       1.25387956       0.01562999
H        0.58154974       0.80845970      -0.71765975
H        0.71398971       0.72748968       1.04871961
H        0.43040982      -0.74428971       0.08793997
H        2.76368888      -0.53290980       2.08987913
H        4.03713837      -1.13355957       1.00807958
H        2.46895915      -1.91573928       1.01849960
H        3.67348865      -0.67043973      -1.38941942
H        2.77272890       1.98599928      -0.82893966
H        3.93113855       1.48815942       2.05398917
H        4.03982847       3.03045878       1.09990955
