14
Properties=species:S:1:pos:R:3 atomization_energy=-1452.25 smiles=C.C.C.C.O.C.N.H.H.H.H.H.H.H pbc="F F F"
C        1.01510960      -0.07830997       0.17341994
C        2.50439908       0.07883997      -0.09179996
C        3.21703882       1.14194958       0.76637967
C        4.07930847      -0.01694999       1.25762946
O        3.24978864      -0.98468961       0.57317979
C        2.81268883       0.12771995      -1.51400937
N        3.05572874       0.19940992      -2.64803890
H        0.80991969      -0.17397992       1.24544955
H        0.61529974      -0.97280960      -0.31770987
H        0.45565982       0.78940970      -0.19428993
H        2.60334902       1.60638935       1.54435939
H        3.76357848       1.92132930       0.22769991
H        5.10472794      -0.03400999       0.87652965
H        4.07982827      -0.17473993       2.33923919
