19
Properties=species:S:1:pos:R:3 atomization_energy=-1847.05 smiles=C.C.C.O.C.C.C.H.H.H.H.H.H.H.H.H.H.H.H pbc="F F F"
C        0.90022967      -0.30208988       0.54901976
C        1.84341924      -0.65866974      -0.60684973
C        1.13439958      -1.56454942      -1.62373940
O        0.68242976      -2.76344891      -1.00267963
C        2.37203897       0.63236976      -1.25853949
C        3.41436867       0.38256986      -2.31236919
C        3.28784877       0.75465971      -3.59242850
H        1.40620942       0.33801986       1.27956953
H        0.56221978      -1.19938951       1.07716959
H        0.01535000       0.23212992       0.18649992
H        2.68511898      -1.21598950      -0.17364994
H        1.79965933      -1.85065926      -2.44406895
H        0.26322990      -1.06167960      -2.05612919
H        1.46672943      -3.22620879      -0.66155975
H        2.82864878       1.26621944      -0.48778982
H        1.53384942       1.20580957      -1.67449937
H        4.32738820      -0.11882996      -1.99645916
H        2.40172902       1.26707951      -3.95506838
H        4.07789844       0.55555981      -4.31037855
