10
Properties=species:S:1:pos:R:3 atomization_energy=-1050.61 smiles=C.O.C.C.O.N.C.H.H.H pbc="F F F"
C        2.04020924       0.05444998       0.52760980
O        1.51804945       0.58469978      -0.72336969
C        2.51041895       1.49181936      -0.75802972
C        2.54247889       2.84551889      -0.81745966
O        3.20100872       3.27159864       0.31590987
N        3.42127877       2.16731909       1.17369954
C        3.06046879       1.11649958       0.44199983
H        2.40977915      -0.96739962       0.40080985
H        1.34565950       0.11282995       1.36993945
H        2.07988921       3.62033861      -1.40770940
