15
Properties=species:S:1:pos:R:3 atomization_energy=-1511.28 smiles=O.C.C.O.C.C.C.H.H.H.H.H.H.H.H pbc="F F F"
O        1.13449950       0.14987994       0.22833992
C        2.52142891      -0.03381999      -0.03987999
C        2.80269878      -1.46179938      -0.53525976
O        2.90737891      -1.39878949      -1.97540918
C        3.23538885      -0.03995999      -2.34284904
C        2.11583922       0.94847964      -2.43306907
C        2.94143884       0.84489967      -1.17243952
H        0.97627960       1.10820961       0.26135989
H        3.07094886       0.17302993       0.88378966
H        2.01762925      -2.17235915      -0.26295989
H        3.76869853      -1.81776927      -0.16246993
H        4.13176839       0.13740995      -2.92432876
H        2.25983912       1.81605935      -3.06565874
H        1.10289955       0.56203980      -2.43508898
H        3.64669864       1.61952938      -0.91468964
