19
Properties=species:S:1:pos:R:3 atomization_energy=-1911.31 smiles=C.C.C.C.C.C.C.H.H.H.H.H.H.H.H.H.H.H.H pbc="F F F"
C        2.21089922      -0.65000973       1.10132954
C        2.56504892       0.19220993      -0.11725995
C        2.37514896       1.68020937       0.11302996
C        0.94904965       2.11175915       0.33507986
C        3.44142868       2.50356891       0.07350997
C        3.44250865       3.93468834       0.26868989
C        4.55267812       4.67724801       0.18060993
H        2.43733902      -1.70377938       0.90853964
H        1.14435959      -0.58054975       1.34103944
H        2.78180879      -0.33572986       1.98144924
H        1.94946928      -0.12113996      -0.96960960
H        3.60233855      -0.02824999      -0.39598984
H        0.29492988       1.65148940      -0.41353983
H        0.80065969       3.19067878       0.25556990
H        0.60832978       1.80087935       1.32796944
H        4.42341841       2.06652916      -0.11604995
H        2.50822896       4.43595826       0.50167980
H        5.52290796       4.24613854      -0.04682998
H        4.51051811       5.75143781       0.33569987
