21
Properties=species:S:1:pos:R:3 atomization_energy=-2046.05 smiles=C.C.C.C.C.C.C.H.H.H.H.H.H.H.H.H.H.H.H.H.H pbc="F F F"
C        2.23685906      -1.03416956      -0.78771971
C        1.89929926       0.27244988      -0.08530996
C        3.12446883       1.12768958       0.19088992
C        4.02654853       0.60101975       1.28112945
C        3.76339857       1.86288925      -0.97302964
C        2.95244880       2.63536884       0.03102999
C        3.61116864       3.62790854       0.92942963
H        1.32028949      -1.58875935      -1.01412960
H        2.86825899      -1.67470931      -0.16422994
H        2.76667900      -0.85338967      -1.72887927
H        1.38675947       0.05906998       0.85938967
H        1.18417948       0.82190965      -0.70956975
H        4.93631803       1.19796951       1.39824950
H        4.34672838      -0.42155983       1.06245956
H        3.49784869       0.59816979       2.23932913
H        3.34351860       1.73212930      -1.96507925
H        4.84141826       1.98549928      -0.97855960
H        1.97821927       2.99888886      -0.28354990
H        4.67586826       3.42622875       1.07514955
H        3.12179866       3.63316864       1.90770921
H        3.52233870       4.63147815       0.50136981
