14
Properties=species:S:1:pos:R:3 atomization_energy=-1483.68 smiles=C.C.C.C.C.O.N.H.H.H.H.H.H.H pbc="F F F"
C        0.98750960      -0.03871998      -0.00800000
C        2.46755897       0.05643998      -0.00021000
C        3.30248878       1.15485960       0.00340000
C        4.63489825       0.67792974       0.01063000
C        4.58722833      -0.69700971       0.01122000
O        5.57884778      -1.57949942       0.01694999
N        3.26472867      -1.06472953       0.00448000
H        0.53018980       0.95574961       0.00073000
H        0.63221975      -0.58299976       0.87282965
H        0.64074974      -0.56372979      -0.90377966
H        2.98845875       2.19103924       0.00110000
H        5.53989792       1.27119945       0.01496999
H        5.21715817      -2.47986895       0.01572999
H        2.92004897      -2.01321926       0.00317000
