21
Properties=species:S:1:pos:R:3 atomization_energy=-2050.56 smiles=C.C.C.C.C.C.C.H.H.H.H.H.H.H.H.H.H.H.H.H.H pbc="F F F"
C        2.18880913      -0.53397981       1.30278943
C        2.48457896       0.06693998      -0.06399997
C        3.07165867       1.46403945       0.03270999
C        2.01484919       2.54326894       0.09997996
C        4.40431845       1.71783928       0.03578999
C        5.46615765       0.64243973       0.04713998
C        5.00105815       3.10499870       0.02538999
H        1.76940935      -1.53898940       1.18890956
H        1.46399946       0.07005997       1.85864933
H        3.09818878      -0.61520978       1.90782920
H        1.55898943       0.10255996      -0.65223977
H        3.14558870      -0.60221977      -0.62469977
H        1.20046949       2.24136923       0.76733967
H        1.59324933       2.71848903      -0.89501966
H        2.38775896       3.49160853       0.49426981
H        5.08044812      -0.35568986       0.26689989
H        6.21182780       0.86143967       0.81963967
H        5.97483778       0.60600979      -0.92165966
H        4.29581853       3.88149843      -0.27808990
H        5.82955755       3.15258887      -0.69014971
H        5.38983804       3.35504862       1.01733957
