17
Properties=species:S:1:pos:R:3 atomization_energy=-1624.54 smiles=C.C.C.C.C.N.H.H.H.H.H.H.H.H.H.H.H pbc="F F F"
C        3.69016851      -1.69772936       1.21831952
C        3.25376866      -0.88845968       0.02854999
C        2.63659896      -1.45921942      -1.01926959
C        3.50329853       0.60452974       0.08892996
C        4.99438803       0.96561961       0.05330998
N        5.18612799       2.41597892       0.06481998
H        4.78032836      -1.69714938       1.30596944
H        3.36463872      -2.74030887       1.14589957
H        3.26484878      -1.28235943       2.13719907
H        2.44325896      -2.52792897      -1.05264961
H        2.30299912      -0.87504966      -1.87276928
H        3.04344879       1.00240957       1.00325962
H        2.99380892       1.10161960      -0.74752971
H        5.46410771       0.54855976      -0.84434965
H        5.50951774       0.54460977       0.92246964
H        4.76185821       2.82116893      -0.76915967
H        6.18299744       2.62133897       0.00399000
