17
Properties=species:S:1:pos:R:3 atomization_energy=-1719.32 smiles=O.C.C.C.C.C.C.H.H.H.H.H.H.H.H.H.H pbc="F F F"
O        1.66788930      -0.24265990      -0.89842967
C        2.81909880       0.05372998      -0.11232996
C        3.51256868      -1.08507954       0.57252978
C        4.12593828      -0.44487981      -0.64413975
C        5.12227808       0.67359974      -0.53762978
C        4.25550811       1.93334922      -0.44083983
C        2.99915885       1.48217942       0.31269987
H        0.85603966      -0.18602993      -0.36695986
H        3.09441870      -2.07844915       0.45754981
H        3.97198845      -0.91062963       1.53754935
H        4.13207826      -0.96621960      -1.59034941
H        5.73869761       0.55576981       0.36084984
H        5.78434786       0.71586970      -1.40775949
H        4.76862826       2.76404895       0.05122998
H        3.97383855       2.25734912      -1.45004945
H        3.15644879       1.54189942       1.39611945
H        2.13881929       2.10904912       0.05683998
