14
Properties=species:S:1:pos:R:3 atomization_energy=-1464.21 smiles=C.C.C.C.C.N.O.H.H.H.H.H.H.H pbc="F F F"
C        0.96789962      -0.06320998      -0.00961000
C        2.42784909       0.12781995       0.00083000
C        3.25307879       1.22469947       0.00651000
C        4.55676841       0.68016975       0.01580999
C        5.85272762       1.39227947       0.02528999
N        4.52454824      -0.65832973       0.01580999
O        3.18413886      -1.00162962       0.00620000
H        0.44540984       0.89839964      -0.00195000
H        0.64858974      -0.63036978       0.86992967
H        0.65874973      -0.61123973      -0.90499962
H        2.96037882       2.26366900       0.00435000
H        5.70697755       2.47741906       0.01217000
H        6.44824755       1.12121956      -0.85246967
H        6.42478730       1.13928951       0.92377962
