17
Properties=species:S:1:pos:R:3 atomization_energy=-1686.1 smiles=C.C.O.C.C.C.C.H.H.H.H.H.H.H.H.H.H pbc="F F F"
C        0.77681969       1.95957918       0.67348972
C        2.06578919       1.18020956       0.50500981
O        3.08550888       2.08134920       0.07903997
C        4.33628843       1.41379942      -0.10334996
C        5.37875767       2.43217910      -0.55406979
C        6.69336718       1.80552931      -0.75784968
C        7.76761704       1.29764945      -0.92490963
H       -0.03537999       1.30435944       1.00049961
H        0.48859980       2.43656916      -0.26910990
H        0.90361962       2.76003890       1.40987945
H        1.92989922       0.39370984      -0.24536991
H        2.35133898       0.72245971       1.45844943
H        4.22226826       0.62631974      -0.85838968
H        4.64240813       0.94870964       0.84174969
H        5.45330793       3.23344868       0.19069993
H        5.04244804       2.91496878      -1.47922941
H        8.72357703       0.84955966      -1.07416962
