13
Properties=species:S:1:pos:R:3 atomization_energy=-1389.28 smiles=O.C.C.C.C.C.C.H.H.H.H.H.H pbc="F F F"
O        1.00003962      -0.00362000      -0.00291000
C        2.41999907       0.00000000       0.00000000
C        2.90201889       1.36116943       0.00000000
C        3.29929881       2.48306901       0.00000000
C        3.78131863       3.84423844       0.00000000
C        2.72013902       4.85698811      -0.08291997
C        1.86408921       5.69771800      -0.14999994
H        0.72399969      -0.93413965      -0.00571000
H        2.76773879      -0.53922981      -0.88643964
H        2.76395887      -0.53800979       0.88866962
H        4.47171815       3.98693832      -0.84001965
H        4.36969809       4.02307847       0.90799964
H        1.10437960       6.44427737      -0.20919991
