14
Properties=species:S:1:pos:R:3 atomization_energy=-1348.49 smiles=C.C.C.C.N.N.H.H.H.H.H.H.H.H pbc="F F F"
C        0.95030960      -0.00943999      -0.08293997
C        2.42703911       0.03190999       0.14012994
C        3.15871875       1.14886951       0.02829999
C        4.61573823       1.11035960       0.26698991
N        5.34093776       2.17879915       0.16121994
N        6.65251728       1.95706924       0.40870983
H        0.71533975      -0.70562973      -0.89386966
H        0.54353976       0.97195963      -0.34695986
H        0.44590983      -0.35512988       0.82454966
H        2.89650898      -0.91203966       0.40748984
H        2.73442905       2.11143920      -0.23292990
H        5.04498801       0.12838995       0.54033976
H        7.13385731       2.85703883       0.48477982
H        7.09549741       1.49457936      -0.38944986
