18
Properties=species:S:1:pos:R:3 atomization_energy=-1711.85 smiles=C.C.C.C.O.C.N.H.H.H.H.H.H.H.H.H.H.H pbc="F F F"
C        0.94714960      -0.01568999       0.04207998
C        2.46297916      -0.04180998       0.03762999
C        3.17480866       1.02783958       0.91404967
C        4.25261841      -0.04430999       1.23078948
O        5.41991794      -0.02991999       0.37350984
C        3.14516882      -1.10337961       0.94552963
N        3.65982844      -2.19757916       0.12699996
H        0.54860979      -0.85475964      -0.53634977
H        0.57903980       0.91031964      -0.40947985
H        0.54494979      -0.08202997       1.05729957
H        2.83871882      -0.02268999      -0.99695960
H        2.60868885       1.35015945       1.79615924
H        3.52271871       1.91290925       0.37676986
H        4.57719816      -0.03476999       2.27690908
H        5.08320813       0.13164995      -0.52075980
H        2.57225903      -1.41536942       1.82608926
H        4.44264807      -1.95906922      -0.48056980
H        2.96464877      -2.69773882      -0.42266984
