17
Properties=species:S:1:pos:R:3 atomization_energy=-1673.89 smiles=C.C.C.C.C.C.C.H.H.H.H.H.H.H.H.H.H pbc="F F F"
C       -1.78792933       0.94654962       0.36074986
C       -1.41226940      -0.42708983      -0.11911995
C       -0.35916986      -1.32368953       0.40248984
C        0.74339968      -0.68023971      -0.35426987
C        2.01757916      -0.11620995       0.10287996
C        0.83331969       0.82102970       0.03379998
C       -0.60801973       0.78452967      -0.57457978
H       -2.69101899       1.39136944      -0.04318998
H       -1.61029935       1.18782958       1.40153940
H       -2.04804917      -0.90755964      -0.85377965
H       -0.24281990      -1.25167949       1.48744936
H       -0.50793979      -2.36634915       0.10989996
H        0.75789970      -1.00074961      -1.39741946
H        2.38908900      -0.41451982       1.07629955
H        2.80393899       0.03344999      -0.62932974
H        0.76477970       1.24830948       1.03827960
H       -0.73225969       1.13214954      -1.59681932
