17
Properties=species:S:1:pos:R:3 atomization_energy=-1632.42 smiles=C.O.C.C.C.C.O.H.H.H.H.H.H.H.H.H.H pbc="F F F"
C        1.71302934       1.49778939       1.89182925
O        3.04236881       1.66736937       1.41610938
C        3.12985888       1.43736943       0.00906000
C        4.57622820       1.61062940      -0.44461982
C        5.04007815       3.02750877      -0.29447988
C        5.99384740       3.42504860       0.80025969
O        6.44083759       3.21162883      -0.54661977
H        1.69870929       1.72252936       2.96141893
H        1.38557945       0.46409982       1.74649931
H        1.03103958       2.18467923       1.38129940
H        2.47400906       2.13942917      -0.51898979
H        2.80221885       0.41423983      -0.20832992
H        4.65542792       1.32658945      -1.49977940
H        5.22415784       0.93816963       0.13000995
H        4.36107846       3.76418862      -0.70142973
H        6.27119731       2.68891883       1.54498934
H        5.96325779       4.44431850       1.16277952
