13
Properties=species:S:1:pos:R:3 atomization_energy=-1409.62 smiles=O.C.C.C.C.C.O.H.H.H.H.H.H pbc="F F F"
O        1.16966956      -0.04808998       0.51491981
C        2.31991919       0.01642999       0.13157995
C        3.17139866       1.24652953       0.04584998
C        4.30459814       0.79062972      -0.87438963
C        4.53866819      -0.69583971      -0.60181976
C        3.16078863      -1.17685948      -0.26022990
O        2.77951888      -2.32871899      -0.22579992
H        3.54323854       1.49383940       1.04429959
H        2.61732893       2.08520924      -0.38082984
H        3.99840855       0.92376966      -1.91968927
H        5.21415795       1.38031947      -0.72242969
H        4.93263802      -1.21000950      -1.48101945
H        5.19335778      -0.84464967       0.26158989
