17
Properties=species:S:1:pos:R:3 atomization_energy=-1651.31 smiles=C.O.C.C.C.O.C.H.H.H.H.H.H.H.H.H.H pbc="F F F"
C        1.93620927      -0.28447990      -1.42485947
O        2.21938916       0.16438994      -0.10676996
C        2.97905890       1.36409950      -0.08158997
C        2.19116919       2.59503899      -0.47086981
C        2.98807874       3.69993852       0.18688993
O        3.57660859       3.14764873       1.37214949
C        3.39026877       1.72387933       1.33902950
H        1.40051947      -1.23537952      -1.35499942
H        2.86272889      -0.44801982      -1.98385925
H        1.29855948       0.43151982      -1.95132921
H        3.87691836       1.26512950      -0.70562973
H        1.17714954       2.54571908      -0.05487998
H        2.09464920       2.73083888      -1.55194939
H        3.80224850       4.04039848      -0.46184982
H        2.36944904       4.56267801       0.45013982
H        4.31775823       1.22545949       1.63779930
H        2.61747906       1.45706943       2.06916917
