15
Properties=species:S:1:pos:R:3 atomization_energy=-1538.25 smiles=C.C.C.O.O.C.C.H.H.H.H.H.H.H.H pbc="F F F"
C        2.29400906      -1.42011943       1.27774947
C        2.62203894      -1.09717958      -0.16932994
C        2.74898881       0.39105986      -0.40273983
O        2.83595882       1.23444955       0.48139981
O        2.77168878       0.62260978      -1.75736936
C        2.86726884       1.95648926      -2.15243912
C        2.93644873       2.29564921      -3.44217861
H        2.17158904      -2.49940898       1.40976943
H        1.36582948      -0.92862962       1.58890936
H        3.09195872      -1.08214959       1.94727929
H        1.82088934      -1.48420942      -0.80850966
H        3.56635864      -1.57375939      -0.45255983
H        2.87471892       2.68193885      -1.34867953
H        2.92426895       1.54218934      -4.22187841
H        3.00626879       3.33664863      -3.73797846
