16
Properties=species:S:1:pos:R:3 atomization_energy=-1582.2 smiles=C.C.C.C.C.N.O.H.H.H.H.H.H.H.H.H pbc="F F F"
C        1.01160957       0.01360999      -0.03786999
C        2.53274900      -0.05213998      -0.06338998
C        3.06961883      -1.26047954      -0.79416967
C        3.29982870      -0.62950977      -2.11551914
C        3.56307859      -1.44874944      -3.33249879
N        3.30372874       0.66304971      -2.11934915
O        3.04000876       1.07725954      -0.78969968
H        0.68124973       0.93427963       0.45469982
H        0.58882975      -0.84092968       0.49903981
H        0.59385978       0.03338998      -1.05033958
H        2.91617896      -0.01282000       0.96167965
H        2.37883904      -2.10444912      -0.83988970
H        4.03508842      -1.58551941      -0.39456985
H        3.69704857      -0.80557971      -4.20613823
H        2.71822888      -2.12057927      -3.50682865
H        4.46802805      -2.04293921      -3.18024867
