17
Properties=species:S:1:pos:R:3 atomization_energy=-1673.87 smiles=C.C.O.C.C.C.O.H.H.H.H.H.H.H.H.H.H pbc="F F F"
C        3.67143846      -1.81335927      -0.10853996
C        2.76159882      -0.59204975      -0.06850997
O        2.06144922      -0.55209978       1.17169956
C        3.48777865       0.72958971      -0.32176988
C        4.46894805       1.11485955       0.77017972
C        5.34575779       2.30704904       0.49126981
O        4.52311802       0.52236979       1.84921933
H        4.20071841      -1.88170925      -1.06360955
H        3.08003885      -2.72571882       0.02625999
H        4.40724852      -1.80250928       0.70105975
H        2.00185918      -0.71318970      -0.84931970
H        2.73746888      -0.43164983       1.87241930
H        2.75194891       1.54058944      -0.37559984
H        4.02683845       0.68156975      -1.27408953
H        5.96848761       2.10804912      -0.38447985
H        5.99520747       2.49662904       1.35048950
H        4.72150792       3.18705884       0.31904988
