16
Properties=species:S:1:pos:R:3 atomization_energy=-1571.34 smiles=C.C.C.C.C.N.O.H.H.H.H.H.H.H.H.H pbc="F F F"
C        0.94826963      -0.06724997       0.32528988
C        2.38001895      -0.04809998      -0.18761993
C        2.78119890       1.33131952      -0.70121973
C        3.90481838       1.25356945      -1.72667933
C        4.49852834      -0.12249995      -1.82012932
N        3.84028844      -1.21750954      -1.59533939
O        2.48756909      -0.97361959      -1.27314947
H        0.80927971       0.64499976       1.14397959
H        0.68578974      -1.06867952       0.68326971
H        0.23970990       0.17260992      -0.47556982
H        3.04984892      -0.36824987       0.62145977
H        3.07332885       1.96697917       0.14308994
H        1.92673928       1.83380934      -1.17169956
H        4.70185838       1.96033920      -1.47248940
H        3.54194862       1.52434940      -2.72487881
H        5.54727760      -0.19640992      -2.14979923
