15
Properties=species:S:1:pos:R:3 atomization_energy=-1506.3 smiles=C.C.C.C.C.N.H.H.H.H.H.H.H.H.H pbc="F F F"
C        1.15142954      -0.33625988       0.03654999
C        2.66475888      -0.19037993       0.04844998
C        3.08765874       1.27430956      -0.06361998
C        4.60927804       1.41679938      -0.04851998
C        5.00922813       2.82648882      -0.15391994
N        5.32702774       3.93899841      -0.23687991
H        0.87168968      -1.39086944       0.12288995
H        0.72717970       0.05262998      -0.89462962
H        0.69839974       0.20494991       0.87332964
H        3.08785884      -0.76499967      -0.78372972
H        3.06002872      -0.62208979       0.97530964
H        2.65305903       1.84737933       0.76561971
H        2.68361887       1.70447934      -0.98914963
H        5.04435819       0.85080965      -0.88028963
H        5.01371812       0.99116960       0.87709966
