14
Properties=species:S:1:pos:R:3 atomization_energy=-1366.64 smiles=C.C.N.N.C.C.H.H.H.H.H.H.H.H pbc="F F F"
C        1.07955954      -0.01357999       0.01052000
C        2.56961889       0.00583000       0.03223999
N        3.29819865      -1.06760964       0.04983998
N        4.58182844      -0.63841972       0.12657995
C        4.71293825       0.75931970      -0.26635990
C        3.33329868       1.29275952       0.06511998
H        0.71173974      -1.03922956      -0.07388997
H        0.72109971       0.56854976      -0.84204965
H        0.69936970       0.43115984       0.93405966
H        5.23135786      -1.25770944      -0.35970984
H        4.90648793       0.83465969      -1.34220951
H        5.50769793       1.27618955       0.27780990
H        2.96050877       2.00053923      -0.67838975
H        3.27496878       1.71885933       1.07112953
