19
Properties=species:S:1:pos:R:3 atomization_energy=-1801.36 smiles=C.C.O.C.C.C.O.H.H.H.H.H.H.H.H.H.H.H.H pbc="F F F"
C        0.91747967      -0.08467997       0.01542000
C        2.43065906       0.06992997       0.10050996
O        3.04420882      -0.66440971      -0.97333962
C        2.95884894       1.52984934       0.07379997
C        2.59236907       2.28409900      -1.20711955
C        2.50597893       2.32330901       1.29911953
O        4.39440839       1.46715940       0.11753995
H        0.41140984       0.40855985       0.84898964
H        0.64886976      -1.14662957       0.03264999
H        0.52423979       0.31436986      -0.92444962
H        2.78455894      -0.41419983       1.01906962
H        2.54674910      -0.47823980      -1.78924928
H        2.96668887       1.76619932      -2.09697923
H        3.05990886       3.27607878      -1.21715956
H        1.51119941       2.41903895      -1.30955948
H        2.78733888       1.80564929       2.22340905
H        1.42386945       2.48672908       1.30752947
H        2.99941876       3.30175879       1.33335949
H        4.64113840       0.68083976      -0.41040985
