15
Properties=species:S:1:pos:R:3 atomization_energy=-1548.03 smiles=C.O.C.C.C.C.C.H.H.H.H.H.H.H.H pbc="F F F"
C        0.95745960       0.30875987      -0.61178975
O        2.25684900       0.07012997      -0.07544997
C        3.03570878       1.19798958      -0.07961997
C        4.37553805       1.16826950       0.00000000
C        5.15891810      -0.11199996       0.08632997
C        5.07853797       2.38589902       0.00000000
C        5.67361784       3.41660862       0.00000000
H        0.41707985      -0.64181975      -0.62669975
H        1.02278961       0.68441970      -1.63845940
H        0.40089983       1.01063961       0.01807999
H        2.47970897       2.12709925      -0.13015995
H        4.52134817      -1.00117958       0.07581997
H        5.74423779      -0.13695995       1.01151961
H        5.84923788      -0.19193992      -0.76007972
H        6.20766736       4.33808805       0.00080000
