15
Properties=species:S:1:pos:R:3 atomization_energy=-1464.77 smiles=C.C.C.N.C.C.H.H.H.H.H.H.H.H.H pbc="F F F"
C        1.59401932       0.29054989      -1.71818938
C        2.31404921      -0.21222992      -0.70613975
C        2.97474883       0.60085977       0.36894987
N        4.40384810       0.27559989       0.42709983
C        5.26686793       1.29160952      -0.17041992
C        5.15534812       1.14688959       1.32498954
H        1.14517955      -0.36754984      -2.45629894
H        1.44280944       1.35830950      -1.83755923
H        2.43730899      -1.29083953      -0.63194976
H        2.51349890       0.32865989       1.32628942
H        2.77923879       1.67159932       0.22018991
H        4.81357805       2.15280903      -0.64486975
H        6.16265752       0.92070963      -0.65283975
H        5.97652789       0.67700974       1.85305931
H        4.61861834       1.90296929       1.88383931
