17
Properties=species:S:1:pos:R:3 atomization_energy=-1684.45 smiles=C.O.C.C.C.C.C.H.H.H.H.H.H.H.H.H.H pbc="F F F"
C        2.28105917       0.16901993       2.41966902
O        3.37323868       1.01254963       2.08074916
C        3.12582889       1.86342924       0.94895963
C        2.11415920       2.95444878       1.30512943
C        4.48269809       2.46272909       0.54279980
C        4.42529827       3.20766875      -0.72453974
C        4.38647812       3.82620861      -1.75446932
H        2.63109890      -0.56015981       3.15568876
H        1.91344924      -0.37194987       1.54278939
H        1.47410936       0.74742972       2.87704894
H        2.73966896       1.25414955       0.12140995
H        2.43400901       3.50671864       2.19524913
H        1.13516957       2.52232898       1.53481938
H        1.97157917       3.66186854       0.48294982
H        5.21789801       1.65288934       0.45091983
H        4.85919802       3.10921868       1.34532945
H        4.35602830       4.37956828      -2.66400895
