16
Properties=species:S:1:pos:R:3 atomization_energy=-1582.53 smiles=C.C.C.C.N.C.O.H.H.H.H.H.H.H.H.H pbc="F F F"
C        0.97495959      -0.02745999       0.08097997
C        2.48331907       0.08369996      -0.00587000
C        3.16154865       1.09047955       0.94148961
C        4.17375833      -0.03292999       1.23254950
N        3.16736867      -1.00897958       0.72498971
C        5.51404760      -0.04821998       0.42720985
O        5.65381792      -0.21397992      -0.78535971
H        0.61348977      -0.88248965      -0.50027980
H        0.50237980       0.87307965      -0.32487987
H        0.62992978      -0.14918994       1.11377957
H        2.82446891       0.18146992      -1.04514957
H        2.56542893       1.38267940       1.81424924
H        3.56013867       1.99125925       0.46661982
H        4.36996809      -0.15542994       2.30502912
H        3.55892849      -1.71749938       0.10019996
H        6.41040745       0.09128996       1.05511955
