15
Properties=species:S:1:pos:R:3 atomization_energy=-1531.11 smiles=O.C.O.C.C.C.C.H.H.H.H.H.H.H.H pbc="F F F"
O        2.18666911      -0.09447997      -0.62747977
C        1.98647921       0.88797962       0.06879997
O        2.92489878       1.73178929       0.56579979
C        4.28261807       1.40054950       0.21063992
C        5.36626778       2.31851900       0.83080968
C        6.24833761       1.06540956       0.98293963
C        4.94815791       0.23982990       0.99511960
H        0.99088958       1.22948948       0.39109986
H        4.40486803       1.31589943      -0.87834965
H        5.07403790       2.77671901       1.78298931
H        5.76452775       3.09331879       0.17084993
H        6.88706725       0.86862966       0.11422996
H        6.85448725       1.01611962       1.89099920
H        5.00029813      -0.71887970       0.47220981
H        4.53188805       0.07803997       1.99640920
