15
Properties=species:S:1:pos:R:3 atomization_energy=-1581.02 smiles=O.C.C.C.C.C.C.H.H.H.H.H.H.H.H pbc="F F F"
O        1.03432960       0.02808999      -0.04912998
C        2.23260905       0.01433000       0.02481999
C        3.47955871       1.05344956       0.08221997
C        4.06405833       0.02643999      -0.97169960
C        3.45820871      -1.05042960       0.01864999
C        4.23402816      -0.81680965       1.31495949
C        4.25523811       0.72583969       1.35804947
H        3.32032860       2.08013914      -0.23492991
H        5.15316797       0.01941999      -1.08550951
H        3.61425868       0.06173997      -1.97179921
H        3.27871867      -2.05264917      -0.36011985
H        3.71379857      -1.23564951       2.18181905
H        5.24514777      -1.23324946       1.27068949
H        5.27765812       1.11522959       1.32801953
H        3.75412842       1.11043959       2.25138905
