13
Properties=species:S:1:pos:R:3 atomization_energy=-1426.27 smiles=C.C.C.O.C.C.C.H.H.H.H.H.H pbc="F F F"
C        0.86842969       0.10386996      -0.00457000
C        2.36615915       0.03912999      -0.00486000
C        2.94922880      -1.33157942      -0.01090999
O        2.25021899      -2.33962904      -0.01536999
C        3.13901875       1.13798949       0.00000000
C        4.54501836       1.13798949       0.00000000
C        5.73517759       1.13798949       0.00000000
H        0.50297981       1.13654956      -0.00001000
H        0.46263980      -0.39348984       0.88259967
H        0.46263980      -0.38562985      -0.89610967
H        4.04817836      -1.40322939      -0.01122999
H        2.66221891       2.11553920       0.00432000
H        6.80087746       1.14124961       0.00001000
