15
Properties=species:S:1:pos:R:3 atomization_energy=-1597.0 smiles=C.C.C.C.C.C.C.H.H.H.H.H.H.H.H pbc="F F F"
C        0.99999962       0.00000000       0.00000000
C        2.44399905       0.00000000       0.00000000
C        3.63415853       0.00000000       0.00000000
C        5.07815797       0.00000000       0.00000000
C        5.58554768       1.43281939       0.00000000
C        7.02954710       1.43281939      -0.00000000
C        8.21970684       1.43281939      -0.00000000
H        0.60601976       1.02088962       0.01166000
H        0.60592973      -0.52048980       0.87826966
H        0.60592973      -0.50028980      -0.88992963
H        5.45378786      -0.53795977      -0.87941966
H        5.45378786      -0.53795977       0.87941966
H        5.20976789       1.97072920       0.87938964
H        5.20976789       1.97072920      -0.87938964
H        9.28459622       1.43488939       0.00000000
