15
Properties=species:S:1:pos:R:3 atomization_energy=-1510.13 smiles=C.C.C.O.C.C.O.H.H.H.H.H.H.H.H pbc="F F F"
C        1.30288948       0.08475997       0.20657993
C        2.72507892      -0.15824994      -0.29075989
C        2.73159890      -0.90633962      -1.61035941
O        1.72463935      -1.29584944      -2.19607905
C        3.46467873       1.14251960      -0.42683983
C        4.43702815       1.60836940       0.62723974
O        4.88201785       0.99651959      -0.59132979
H        1.30839951       0.60746977       1.16929951
H        0.76525970      -0.86104963       0.33514988
H        0.73193973       0.69734973      -0.50117981
H        3.23655866      -0.80730970       0.43088984
H        3.73251852      -1.12923953      -2.01796927
H        2.96043887       1.87785930      -1.04218960
H        4.54612811       1.03619957       1.53974943
H        4.60415824       2.67230888       0.73967968
