17
Properties=species:S:1:pos:R:3 atomization_energy=-1725.96 smiles=O.C.C.C.C.C.C.H.H.H.H.H.H.H.H.H.H pbc="F F F"
O        1.01965957       0.04473998      -0.02459999
C        2.43635896      -0.00569000       0.00311000
C        2.98447872       1.12481957       0.86551968
C        4.38922803       0.66205975       1.21889951
C        4.21440839      -0.82352967       1.37182941
C        5.02029790      -1.61997941       2.08454914
C        2.95870889      -1.27772953       0.67522974
H        0.70926973      -0.73549969      -0.51495981
H        2.81430879       0.07774997      -1.02357960
H        2.37377905       1.25779953       1.76823929
H        2.98313885       2.08257919       0.33484985
H        5.07749787       0.87114963       0.39274985
H        4.75755798       1.14706951       2.12693928
H        4.82028804      -2.68226890       2.18305926
H        5.89586768      -1.22696957       2.59166885
H        3.16457864      -2.04926919      -0.07306998
H        2.23301908      -1.67274932       1.39459941
