15
Properties=species:S:1:pos:R:3 atomization_energy=-1497.78 smiles=O.C.C.O.C.C.C.H.H.H.H.H.H.H.H pbc="F F F"
O        0.92835962       0.04842998      -0.46327981
C        2.30142912      -0.01582000      -0.02625999
C        3.20377881      -0.86180965      -0.88467963
O        2.56343904      -1.48567938      -2.01435916
C        3.30811879       0.64195974      -0.93542963
C        4.47046809       1.30525951      -0.33480986
C        5.73149759       1.21987956      -0.77813970
H        0.50362982       0.86162968      -0.13694995
H        2.48931900      -0.03445999       1.04245959
H        3.99260846      -1.41840938      -0.39046984
H        1.60546935      -1.29454943      -1.98000918
H        2.93140892       1.13013959      -1.82889922
H        4.27794843       1.93400920       0.53289977
H        5.98216749       0.61715974      -1.64597937
H        6.53674719       1.75180937      -0.28238990
