15
Properties=species:S:1:pos:R:3 atomization_energy=-1536.19 smiles=O.C.C.C.C.O.C.H.H.H.H.H.H.H.H pbc="F F F"
O        1.13840950       0.06282997       0.51028978
C        2.30135922       0.00518000       0.11071996
C        3.02667886      -1.31351944      -0.01504999
C        3.99568841      -1.27273956      -1.18824959
C        4.86002819      -0.01952999      -1.13877954
O        4.03509852       1.14240958      -1.20943948
C        3.15106883       1.24993953      -0.10126996
H        2.29765903      -2.11727928      -0.15767994
H        3.56380858      -1.49176939       0.92277963
H        4.62473838      -2.16888910      -1.18600952
H        3.41843878      -1.26989944      -2.12045916
H        5.47388806       0.01576999      -0.23125991
H        5.53512786       0.00049000      -2.00023921
H        3.72438841       1.44682945       0.81080966
H        2.48791907       2.09996923      -0.28697991
