15
Properties=species:S:1:pos:R:3 atomization_energy=-1469.62 smiles=C.C.C.C.C.N.H.H.H.H.H.H.H.H.H pbc="F F F"
C        0.94747964      -0.01158000      -0.22516991
C        2.00758924       0.31299989       0.52591978
C        2.93299886       1.37567948       0.08806997
C        2.45529895       2.82933891       0.29467989
C        3.88734848       3.07693870       0.79546968
N        3.96142839       1.63600939       1.12399962
H        0.26315990      -0.79145970       0.09527996
H        0.73269970       0.48896981      -1.16456956
H        2.19164912      -0.20467992       1.46377942
H        3.36535863       1.18809958      -0.90399963
H        1.68615934       2.97082887       1.06411964
H        2.16576927       3.37432875      -0.60766975
H        4.58985812       3.38866874       0.01348000
H        3.98080844       3.75005857       1.65167941
H        4.86331808       1.20248953       0.93757962
