15
Properties=species:S:1:pos:R:3 atomization_energy=-1519.52 smiles=O.C.C.C.C.C.O.H.H.H.H.H.H.H.H pbc="F F F"
O        0.30734988      -0.54033976       0.13757995
C        1.64972940      -0.93232961       0.41741983
C        2.38804914      -1.23620956      -0.89034964
C        1.86866928      -2.47861890      -1.56531941
C        2.64034885      -3.47655874      -2.01433923
C        2.37380907       0.17875993       1.16429957
O        1.79351935       1.16534952       1.61570934
H        0.08061997       0.15666994       0.78667966
H        1.62625931      -1.80796923       1.07360957
H        3.46480869      -1.33396950      -0.70132975
H        2.25711899      -0.39871985      -1.58738932
H        0.78913970      -2.54213900      -1.70088930
H        3.72200842      -3.45544871      -1.92399921
H        2.19665916      -4.33916854      -2.50380913
H        3.45058856       0.01843999       1.34631948
