16
Properties=species:S:1:pos:R:3 atomization_energy=-1518.14 smiles=C.C.C.C.N.N.H.H.H.H.H.H.H.H.H.H pbc="F F F"
C        1.81943932      -0.70028970      -0.37212984
C        3.31414876      -0.50493979      -0.17964993
C        3.66447866       0.96534962       0.02874999
C        5.14999819       1.12003953       0.26690988
N        5.63075787       1.09352961       1.53663944
N        5.98442788       1.24041945      -0.71193971
H        1.59233943      -1.75989936      -0.52413981
H        1.46063941      -0.14663994      -1.24529954
H        1.26359949      -0.35655987       0.50580980
H        3.84784854      -0.89559964      -1.05467962
H        3.64901858      -1.09658963       0.68108975
H        3.12334873       1.36960940       0.89177966
H        3.37935872       1.55577940      -0.84926967
H        5.11593801       0.55560977       2.22177924
H        6.63544757       0.95315962       1.56619942
H        5.48700778       1.23877955      -1.60862942
