15
Properties=species:S:1:pos:R:3 atomization_energy=-1490.91 smiles=O.C.C.C.O.C.C.H.H.H.H.H.H.H.H pbc="F F F"
O        0.93575962      -0.01604000       0.05634998
C        2.35462912      -0.11783995       0.06140997
C        2.94541886       1.28452948       0.05561998
C        4.47132804       1.28444949       0.01261000
O        4.92494798       2.62414893      -0.16683993
C        5.06560802       0.74698972       1.24643945
C        5.55367773       0.31269987       2.25329920
H        0.58265974      -0.92243962       0.07023997
H        2.66409903      -0.67574973      -0.82808968
H        2.65264899      -0.67566974       0.95416964
H        2.58124909       1.84392933       0.92823964
H        2.55346893       1.83994931      -0.80700967
H        4.82035818       0.71013971      -0.85216965
H        4.70733800       3.10798882       0.64834977
H        5.99345781      -0.06974997       3.14642871
