15
Properties=species:S:1:pos:R:3 atomization_energy=-1472.85 smiles=C.C.C.C.C.N.H.H.H.H.H.H.H.H.H pbc="F F F"
C        0.99999962       0.00000000       0.00000000
C        2.44399905       0.00000000       0.00000000
C        3.63415853       0.00000000       0.00000000
C        5.07815797       0.00000000       0.00000000
C        5.63834799       1.42694941      -0.00512000
N        7.10210698       1.43533942       0.02454999
H        0.60600979       1.02088962       0.01169000
H        0.60591977      -0.52051980       0.87824966
H        0.60591977      -0.50026981      -0.88993967
H        5.45156785      -0.54345977      -0.87638967
H        5.44675792      -0.53612980       0.88311966
H        5.26090787       1.98662922       0.85919966
H        5.30182792       1.95738920      -0.90355963
H        7.42757695       1.01515962       0.89483962
H        7.42920701       2.40064905       0.03733998
