17
Properties=species:S:1:pos:R:3 atomization_energy=-1701.38 smiles=C.O.C.C.C.C.C.H.H.H.H.H.H.H.H.H.H pbc="F F F"
C        1.82108932      -0.17767994      -1.00647961
O        3.10410872       0.36484987      -0.72041974
C        3.16971864       1.64548934      -0.20907991
C        2.12318913       2.46792914      -0.01886000
C        4.58324806       2.08616923       0.11229995
C        5.16772799       1.31269949       1.26322944
C        5.59898785       1.85680933       2.40878900
H        1.96146927      -1.20316956      -1.36105941
H        1.32620943       0.38905985      -1.80145933
H        1.20037953      -0.21579992      -0.10535996
H        1.10161960       2.19198901      -0.24803991
H        2.26829903       3.46591869       0.38392986
H        4.61406830       3.16282873       0.32268989
H        5.21244816       1.93103925      -0.77278971
H        5.24395777       0.23508990       1.12827953
H        5.54634802       2.92576881       2.58915891
H        6.01311744       1.23334951       3.19519879
