15
Properties=species:S:1:pos:R:3 atomization_energy=-1512.2 smiles=C.O.C.C.O.C.C.H.H.H.H.H.H.H.H pbc="F F F"
C        0.89976967       0.83852969      -0.20283992
O        2.17928918       0.81438967       0.42123985
C        3.01447889       1.89113925       0.14496994
C        2.48042912       3.26926861      -0.11183996
O        1.30107951       3.58697865       0.00400000
C        4.33623846       1.64869938       0.14099995
C        5.48805798       2.57700891      -0.06964997
H        0.51053981      -0.18436993      -0.20018992
H        0.95967961       1.16963953      -1.24513956
H        0.20249992       1.45400941       0.37232985
H        3.21868881       4.01956854      -0.42616983
H        4.63794843       0.61854977       0.33484985
H        5.21623817       3.63363848      -0.05769998
H        5.97414740       2.35483906      -1.02459958
H        6.22446758       2.42711910       0.72704968
