19
Properties=species:S:1:pos:R:3 atomization_energy=-1789.35 smiles=C.C.C.O.C.C.O.H.H.H.H.H.H.H.H.H.H.H.H pbc="F F F"
C        1.38521949      -0.50093981       1.77022930
C        1.82601924      -0.87699968       0.36034985
C        2.29271914      -2.32863900       0.32355986
O        0.69694972      -0.68549975      -0.49765982
C        1.04349957      -0.60927974      -1.88648929
C       -0.24279990      -0.40347986      -2.68125906
O       -0.87275963       0.80984966      -2.27499918
H        1.07407954       0.54990980       1.80361929
H        2.19280909      -0.64501976       2.49482891
H        0.51882981      -1.09512952       2.08510919
H        2.64210886      -0.20897991       0.06111998
H        1.44895938      -3.01594872       0.45752981
H        3.03899868      -2.52902888       1.09984962
H        2.74703880      -2.57047908      -0.64246976
H        1.53240936      -1.53164934      -2.21240917
H        1.71581936       0.24288990      -2.03504919
H       -0.94820964      -1.21941957      -2.49859899
H       -0.03452998      -0.34424986      -3.75311859
H       -0.88535966       0.77379973      -1.29875945
