13
Properties=species:S:1:pos:R:3 atomization_energy=-1371.66 smiles=C.C.O.C.C.C.O.H.H.H.H.H.H pbc="F F F"
C        3.54512850      -0.67918976       0.10076996
C        4.67974811      -0.06085997      -0.23088991
O        4.93050784       1.23840951       0.13291995
C        6.20413775       1.76702936       0.02474999
C        7.34520695       1.09720961       0.25669990
C        6.28240737       3.22541874      -0.28150990
O        7.33062725       3.85016847      -0.39527985
H        3.35752879      -1.70240935      -0.20754992
H        2.78476888      -0.17665994       0.68915975
H        5.44889769      -0.53297982      -0.82698970
H        7.34937697       0.05248998       0.54429978
H        8.31124656       1.59081938       0.18736993
H        5.30272774       3.71621842      -0.40431984
