19
Properties=species:S:1:pos:R:3 atomization_energy=-1849.57 smiles=C.C.O.C.C.C.C.H.H.H.H.H.H.H.H.H.H.H.H pbc="F F F"
C        3.06110870      -1.18772953      -0.44876981
C        2.44091909       0.08475997       0.10824996
O        2.00891915      -0.15119993       1.44365942
C        3.41908853       1.22292949       0.11309996
C        3.48949854       2.17903912      -1.05396956
C        2.92157885       2.64165896       0.26290990
C        3.67188862       3.61278860       1.10823951
H        3.39646855      -1.04682959      -1.48092937
H        2.33845898      -2.01007925      -0.42097985
H        3.92215858      -1.50249941       0.15155994
H        1.55110938       0.33794987      -0.47898983
H        2.80321884      -0.29174988       1.98614916
H        4.35203844       0.96203960       0.60116976
H        2.79962892       2.04671913      -1.88036924
H        4.46696826       2.54032903      -1.35381952
H        1.85012924       2.80194885       0.32543989
H        4.75437810       3.46230858       1.04639962
H        3.37266866       3.50830858       2.15542924
H        3.45150856       4.63624822       0.79049971
