19
Properties=species:S:1:pos:R:3 atomization_energy=-1836.17 smiles=C.O.C.C.C.C.C.H.H.H.H.H.H.H.H.H.H.H.H pbc="F F F"
C        1.16495954       0.80642969      -1.27108956
O        2.58361898       0.84689965      -1.20524952
C        3.03920887       1.36534942       0.04314998
C        4.55649842       1.38366942       0.02295999
C        5.23534772       2.44782893      -0.88068964
C        6.31011738       2.58699896       0.21650992
C        5.24841798       2.08841914       1.21895956
H        0.87650965       0.38156984      -2.23598902
H        0.75035973       1.81669925      -1.19600953
H        0.76091973       0.17321994      -0.47533982
H        2.68373898       0.72002970       0.85549966
H        2.63429896       2.37373918       0.19228992
H        4.96400785       0.37658986      -0.14604995
H        4.64497837       3.35940866      -1.03367960
H        5.59250798       2.08957924      -1.84972929
H        7.15679725       1.90261931       0.09414997
H        6.68858752       3.59771862       0.38758986
H        5.61742771       1.42934945       2.00898917
H        4.66269808       2.89623874       1.67392935
