13
Properties=species:S:1:pos:R:3 atomization_energy=-1400.35 smiles=O.C.C.C.C.C.O.H.H.H.H.H.H pbc="F F F"
O        0.97282960      -0.02473999      -0.18369993
C        2.35570910      -0.02788999       0.06912997
C        2.98639872      -1.20930953      -0.58359974
C        3.97398843      -0.89329965      -1.43045946
C        4.20554829       0.57803975      -1.55043944
C        3.11347879       1.09113953      -0.64095975
O        2.84036881       2.28176898      -0.50124979
H        0.67142976       0.88446963      -0.00034000
H        2.55955894      -0.00673000       1.14307952
H        2.66178893      -2.22024911      -0.37654986
H        4.54327828      -1.62169930      -1.99360921
H        5.18836818       0.86430969      -1.17065958
H        4.04407849       0.92529967      -2.57331907
