15
Properties=species:S:1:pos:R:3 atomization_energy=-1536.06 smiles=C.C.O.O.C.C.C.H.H.H.H.H.H.H.H pbc="F F F"
C        1.61693932       2.86186895       0.08916997
C        2.76127886       2.12580908      -0.53919979
O        2.65090892       1.38557945      -1.50565935
O        3.90798842       2.40063895       0.13522995
C        5.10016781       1.78255934      -0.36195985
C        6.10754736       2.86874876      -0.58383977
C        6.67482739       3.14468889      -1.76558931
H        1.81573926       3.93667848       0.07897997
H        1.46661941       2.50728903       1.11179953
H        0.70553970       2.67314889      -0.48530981
H        4.93918804       1.19389954      -1.27143954
H        5.46956765       1.10268961       0.41318985
H        6.37966745       3.46119858       0.28651990
H        6.42702750       2.58340904      -2.66179903
H        7.39634692       3.94977851      -1.86154924
