21
Properties=species:S:1:pos:R:3 atomization_energy=-2047.11 smiles=C.C.C.C.C.C.C.H.H.H.H.H.H.H.H.H.H.H.H.H.H pbc="F F F"
C        1.21661957       2.19075915      -1.54312940
C        2.43371908       2.52295905      -0.69290971
C        3.62019856       1.61612934      -1.03778957
C        4.85415796       1.86601929      -0.14974994
C        5.94242785       0.83649969      -0.46278981
C        5.41300810       3.25636868      -0.34066988
C        5.53977781       4.15568839       0.64406973
H        0.38513985       2.85516880      -1.28939947
H        0.89098968       1.15956949      -1.37554940
H        1.43746947       2.31361898      -2.60777894
H        2.17430917       2.40932899       0.36626986
H        2.69693893       3.57448850      -0.85338967
H        3.88420847       1.75000937      -2.09501912
H        3.30713874       0.57013976      -0.92373963
H        4.55782820       1.72760929       0.89807962
H        6.26589734       0.89686963      -1.50861945
H        5.57672769      -0.18076992      -0.28291990
H        6.82349744       0.98882961       0.17127993
H        5.72841763       3.53120865      -1.34603951
H        5.24067797       3.93191850       1.66332929
H        5.94873764       5.14112773       0.44627981
