16
Properties=species:S:1:pos:R:3 atomization_energy=-1564.18 smiles=C.N.C.C.C.C.O.H.H.H.H.H.H.H.H.H pbc="F F F"
C        0.59217976       1.00456959      -0.47021980
N       -0.50145980       0.30565989       0.19772993
C        0.76567971      -0.40384984       0.02634999
C        1.61564941      -0.77694970       1.21560949
C        1.35652943      -0.19321993       2.61371907
C        1.39423945      -1.63997931       3.08318869
O        1.42331950      -2.13102906       1.72412926
H        0.48437981       1.17084958      -1.53378936
H        1.04706955       1.81288931       0.08811997
H       -1.19125952      -0.03937998      -0.47256983
H        0.78835968      -1.20517950      -0.70344971
H        2.67080902      -0.66630976       0.92269965
H        0.39041985       0.29526990       2.76438884
H        2.15375906       0.44454983       3.00361881
H        2.29558916      -1.93319921       3.62970867
H        0.50492980      -1.98176919       3.61921851
