16
Properties=species:S:1:pos:R:3 atomization_energy=-1570.9 smiles=C.C.C.O.C.C.N.H.H.H.H.H.H.H.H.H pbc="F F F"
C       -1.25196954      -0.00158000       0.94497961
C       -0.59699980      -1.01614958      -0.01877999
C        0.89842967      -1.20848958       0.26881991
O        1.65560934      -0.00085000       0.08482997
C        0.89894966       1.20661956       0.27251990
C       -0.59664975       1.01567961      -0.01520999
N       -0.83878966       0.00129000      -1.11016959
H       -0.90884962      -0.00334000       1.98292916
H       -2.34885907      -0.00152000       0.93422961
H       -1.14048959      -1.95830920      -0.13874994
H        1.05257959      -1.55936944       1.29512954
H        1.32251947      -1.96093925      -0.40412983
H        1.32313944       1.96080917      -0.39828984
H        1.05321956       1.55431941       1.29971945
H       -1.13978950       1.95826920      -0.13260995
H       -1.79892933       0.00221000      -1.45440948
