13
Properties=species:S:1:pos:R:3 atomization_energy=-1399.64 smiles=O.C.C.C.C.C.O.H.H.H.H.H.H pbc="F F F"
O        1.61944939      -0.29226987      -1.02472960
C        2.63789897      -0.04702998      -0.06210998
C        2.90947881       1.40731942      -0.04134999
C        2.16891912       2.52716894      -0.36307985
C        2.99963879       3.64513848      -0.11297996
C        4.19126835       3.13970888       0.34856986
O        4.14606826       1.78363932       0.40086983
H        1.51855940      -1.25678944      -1.07550962
H        3.53270850      -0.60903978      -0.34590985
H        2.28862911      -0.38715986       0.91693962
H        1.15512960       2.52244909      -0.73860974
H        2.76004900       4.68951837      -0.25383990
H        5.12233814       3.58805862       0.66618972
