19
Properties=species:S:1:pos:R:3 atomization_energy=-1837.87 smiles=C.O.C.C.C.C.C.H.H.H.H.H.H.H.H.H.H.H.H pbc="F F F"
C        4.06313832      -0.91487965       0.27865988
O        3.50094858       0.06850997       1.13489957
C        3.43224862       1.36580942       0.53482979
C        2.41183893       2.16789920       1.33735945
C        4.78472800       2.02334922       0.59663978
C        5.68000788       2.06325919      -0.61891975
C        5.04366781       3.32757858      -0.11653996
H        4.02915839      -1.87784921       0.79734967
H        5.10800774      -0.68669971       0.05163998
H        3.48336866      -1.00018963      -0.64555974
H        3.07012878       1.28064951      -0.49828980
H        2.72158892       2.26334905       2.38378903
H        1.44112942       1.66021931       1.33757948
H        2.27917905       3.17371884       0.92598967
H        5.25200814       1.88963927       1.56704940
H        5.31421789       1.65322936      -1.55302937
H        6.74501737       1.93410924      -0.46591983
H        5.67926754       4.05474831       0.37980986
H        4.25059824       3.76755850      -0.70951973
