13
Properties=species:S:1:pos:R:3 atomization_energy=-1429.63 smiles=O.C.C.C.C.C.C.H.H.H.H.H.H pbc="F F F"
O        0.92324966       0.04402998      -0.17314993
C        2.09802918       0.24199990      -0.02094999
C        3.43510854      -0.47558982       0.65087977
C        3.52627860       0.99635962       1.31451943
C        3.22344879       1.44791940      -0.20754992
C        4.28595843       0.77809970      -1.01628963
C        4.42037832      -0.44316983      -0.47088980
H        3.33547857      -1.35387945       1.27872952
H        2.75794885       1.24395954       2.05710925
H        4.50589843       1.28171952       1.71167936
H        2.91489889       2.46360898      -0.42836985
H        4.82334831       1.19536949      -1.85416931
H        5.09063777      -1.23527947      -0.76782969
