16
Properties=species:S:1:pos:R:3 atomization_energy=-1602.35 smiles=C.C.C.C.N.C.O.H.H.H.H.H.H.H.H.H pbc="F F F"
C        0.92481960       0.09474996       0.18392993
C        2.42470909      -0.04913998       0.04320998
C        3.28692877       1.04374957       0.70465970
C        4.07218844      -0.06832997       1.41151947
N        2.98804871      -0.95650964       1.03180957
C        2.97724893      -2.31943901       1.06312962
O        3.74749842      -3.02119873       1.70570934
H        0.41316985      -0.81477971      -0.14814994
H        0.56152978       0.92280966      -0.43350983
H        0.62542977       0.29238988       1.21919953
H        2.74165884      -0.30639989      -0.97465964
H        2.74708901       1.70644930       1.39114940
H        3.87239835       1.65644935       0.01283000
H        5.02660821      -0.33467988       0.94829960
H        4.18691841       0.05319998       2.49092913
H        2.18245922      -2.74766887       0.43092984
