21
Properties=species:S:1:pos:R:3 atomization_energy=-2050.47 smiles=C.C.C.C.C.C.C.H.H.H.H.H.H.H.H.H.H.H.H.H.H pbc="F F F"
C        1.10341961      -0.13536995      -0.20733991
C        2.62180907      -0.29106988      -0.08548996
C        3.13551867      -1.23390956      -1.17568955
C        3.29431880       1.09613960      -0.14545995
C        4.80020802       1.08454952       0.00720000
C        5.34970778       0.58999975       1.31575951
C        5.60876770       1.52947942      -0.96886964
H        0.71208972       0.49761979       0.59606976
H        0.60511975      -1.10805960      -0.13776995
H        0.82554965       0.31977987      -1.16411953
H        2.82842900      -0.75048968       0.88922967
H        2.99830875      -0.80115969      -2.17231903
H        2.60022894      -2.18913918      -1.14550959
H        4.19951832      -1.45366940      -1.04252961
H        2.87948899       1.73198926       0.64802975
H        3.01831887       1.58374944      -1.09032954
H        4.89134805       1.13047961       2.15007906
H        6.43342763       0.73323968       1.38522946
H        5.14965805      -0.47875983       1.43874943
H        5.21452787       1.90074928      -1.90985920
H        6.68902759       1.53472942      -0.85497967
