19
Properties=species:S:1:pos:R:3 atomization_energy=-1897.52 smiles=C.C.C.C.C.C.C.H.H.H.H.H.H.H.H.H.H.H.H pbc="F F F"
C        0.99043961      -0.12021995      -0.07709997
C        2.50145892      -0.01246999       0.07441997
C        3.02738892       1.43281939       0.00000000
C        2.50618912       2.29769915       1.14833949
C        4.47138809       1.43281939       0.00000000
C        5.66154783       1.43281939       0.00000000
C        7.10554726       1.43281939       0.00000000
H        0.69253972      -1.17285953      -0.11952996
H        0.65184973       0.36437987      -0.99823961
H        0.46791980       0.33572986       0.76864971
H        2.96650895      -0.60901978      -0.72186970
H        2.80103895      -0.47836982       1.02210958
H        2.67850891       1.87867926      -0.94040964
H        2.76501891       1.86801927       2.12384923
H        1.41771938       2.40895907       1.10428952
H        2.93698872       3.30591872       1.10842952
H        7.49957715       2.45367898      -0.01151999
H        7.49957715       0.91235961      -0.87829963
H        7.49950701       0.93236961       0.88988964
