17
Properties=species:S:1:pos:R:3 atomization_energy=-1727.9 smiles=C.C.C.O.C.C.C.H.H.H.H.H.H.H.H.H.H pbc="F F F"
C        1.35498945      -0.01062000      -0.12499995
C        2.83922878      -0.27543988       0.07013998
C        3.67846866       0.98221961      -0.09408997
O        3.17095884       2.07294922      -0.36066987
C        5.17239814       0.89145964       0.07366997
C        5.91895751       2.18187911      -0.10351996
C        5.79837748      -0.26116990       0.36211986
H        0.78322966      -0.93542963       0.00074000
H        1.15345954       0.38222984      -1.12735953
H        0.98651958       0.72064974       0.60244977
H        3.16554886      -1.01487960      -0.66853974
H        2.99623888      -0.67425971       1.07769961
H        5.76519794       2.57883907      -1.11244953
H        6.99730724       2.05370921       0.03981999
H        5.57673778       2.92676880       0.62258978
H        5.28215770      -1.20522946       0.49464982
H        6.87865705      -0.29173988       0.47655981
