17
Properties=species:S:1:pos:R:3 atomization_energy=-1647.92 smiles=C.O.C.C.C.C.O.H.H.H.H.H.H.H.H.H.H pbc="F F F"
C        3.26332873      -0.38222984       0.41662985
O        2.52753911       0.83542968       0.43618984
C        3.19501862       2.02663924       0.21718992
C        2.24296901       3.18920870       0.27859988
C        4.51983822       2.13460914      -0.01513000
C        5.31646768       3.37283873      -0.26755989
O        6.31100761       3.46952854       0.74134973
H        2.56257910      -1.20016947       0.60639976
H        4.01841841      -0.39560984       1.20867946
H        3.71742861      -0.54939977      -0.56493978
H        1.73515930       3.20169884       1.24892946
H        1.48233940       3.08674884      -0.50239980
H        2.71816882       4.16235826       0.14933994
H        5.13724789       1.24085952      -0.04597998
H        4.73637831       4.29625809      -0.26614989
H        5.82057759       3.29675859      -1.23568950
H        5.84374765       3.47243868       1.59457937
