12
Properties=species:S:1:pos:R:3 atomization_energy=-1387.27 smiles=C.C.C.C.C.C.H.H.H.H.H.H pbc="F F F"
C       -0.76008969       1.16940953      -0.00152000
C        0.63258973       1.24519949      -0.00065000
C        1.39474942       0.07682997       0.00101000
C        0.76394973      -1.16752953       0.00157000
C       -0.62883977      -1.24334953       0.00053000
C       -1.39084951      -0.07504997      -0.00112000
H       -1.35391944       2.07919921      -0.00294000
H        1.12384961       2.21417902      -0.00107000
H        2.47973900       0.13595994       0.00182000
H        1.35777948      -2.07743920       0.00300000
H       -1.12000950      -2.21242911       0.00093000
H       -2.47595907      -0.13411995      -0.00194000
