19
Properties=species:S:1:pos:R:3 atomization_energy=-1897.8 smiles=C.C.C.C.C.C.C.H.H.H.H.H.H.H.H.H.H.H.H pbc="F F F"
C        1.00093962      -0.05354998       0.00248000
C        2.51999896       0.00000000       0.00000000
C        3.00201878       1.36116943       0.00000000
C        3.39929870       2.48306901       0.00000000
C        3.88131852       3.84423844       0.00000000
C        4.94318800       4.04124834      -1.08057959
C        2.72741903       4.82526805      -0.20144992
H        0.65715973      -1.09278952       0.00217000
H        0.58556976       0.44232981      -0.88172963
H        0.58853976       0.44077984       0.88894965
H        2.89584888      -0.53283978      -0.88065968
H        2.89880898      -0.53400977       0.87866967
H        4.34315840       4.06042829       0.97132962
H        4.53881807       3.85042837      -2.08137923
H        5.78779774       3.35938872      -0.92966966
H        5.33189774       5.06498779      -1.06224962
H        2.23066912       4.66908812      -1.16593959
H        3.08593885       5.85954763      -0.16898993
H        1.97115917       4.70787799       0.58289977
