17
Properties=species:S:1:pos:R:3 atomization_energy=-1640.13 smiles=C.O.C.C.C.C.O.H.H.H.H.H.H.H.H.H.H pbc="F F F"
C        0.90860966       1.52503940      -1.35542952
O        2.32396911       1.40234950      -1.32435947
C        2.83983892       1.63020930      -0.01627999
C        4.32651816       1.49759939      -0.09928996
C        5.19588816       2.45839909       0.25313990
C        6.67901761       2.32851915       0.15073993
O        7.14957705       3.32016862      -0.74723972
H        0.56989979       1.34110947      -2.37830915
H        0.60469974       2.53475907      -1.06339962
H        0.44540984       0.78576969      -0.69522971
H        2.44457916       0.87589964       0.67332975
H        2.54302898       2.62582895       0.33343986
H        4.69140833       0.54938980      -0.48694981
H        4.83034798       3.40990872       0.63296974
H        6.99230705       1.34600949      -0.21652991
H        7.14271717       2.49539893       1.12740950
H        6.64625744       3.20601875      -1.57237939
