17
Properties=species:S:1:pos:R:3 atomization_energy=-1752.08 smiles=C.C.C.C.C.C.C.H.H.H.H.H.H.H.H.H.H pbc="F F F"
C        0.99999962       0.00000000       0.00000000
C        2.44399905       0.00000000       0.00000000
C        3.63415853       0.00000000       0.00000000
C        5.07815797       0.00000000       0.00000000
C        5.62263785      -0.81734970      -1.17228951
C        5.57692804       1.42194946      -0.07950997
C        6.34775764       2.00942924       0.84596968
H        0.60602978       1.02088962       0.01152999
H        0.60593976      -0.52042981       0.87829963
H        0.60601976      -0.50039982      -0.88989967
H        5.43610802      -0.46449983       0.92772962
H        5.29213790      -0.41463983      -2.13663914
H        5.27908783      -1.85593929      -1.11499959
H        6.71763741      -0.82631970      -1.16826950
H        5.28007798       1.99878919      -0.95512963
H        6.66902731       1.48453948       1.73975929
H        6.66875732       3.04000876       0.72680972
