15
Properties=species:S:1:pos:R:3 atomization_energy=-1522.32 smiles=O.C.C.C.C.C.O.H.H.H.H.H.H.H.H pbc="F F F"
O        3.01731888      -0.96652965      -0.60635977
C        2.35747895       0.10740996       0.05425998
C        3.19489877       1.38211948      -0.00819000
C        3.45744869       1.85815930      -1.44330943
C        3.23225868       3.31553860      -1.30327946
C        2.70627897       3.54798867      -0.10639996
O        2.51612895       2.44751907       0.70059975
H        2.44912895      -1.75028933      -0.50568979
H        2.18119908      -0.17460993       1.09806955
H        1.37720949       0.26298990      -0.41010983
H        4.15652840       1.20755949       0.49403981
H        2.75705887       1.43232949      -2.16934909
H        4.47776804       1.62197939      -1.75954926
H        3.42093862       4.05497844      -2.06478921
H        2.37477903       4.48351816       0.31230989
