17
Properties=species:S:1:pos:R:3 atomization_energy=-1650.21 smiles=C.C.C.O.C.C.O.H.H.H.H.H.H.H.H.H.H pbc="F F F"
C        1.08464957       0.06244998      -0.11803996
C        2.57803893      -0.12624995      -0.01482999
C        3.02944870      -1.56119935      -0.06947997
O        2.52834910      -2.25243900       1.06495953
C        3.39117868       0.94468962       0.09383996
C        4.88115791       0.97806964       0.19951992
O        5.38611767       1.69749936      -0.91375961
H        0.79914968       1.11995954      -0.12175995
H        0.57759975      -0.41256984       0.72774971
H        0.70930972      -0.38320983      -1.04535957
H        4.11453846      -1.67884930      -0.08095997
H        2.64255902      -2.04835916      -0.97068964
H        2.74049887      -1.70886928       1.84295925
H        2.93919889       1.93704928       0.11732996
H        5.35101788      -0.00661000       0.21561992
H        5.17727772       1.50544941       1.11134962
H        5.02368823       1.27598946      -1.71151939
