17
Properties=species:S:1:pos:R:3 atomization_energy=-1621.99 smiles=C.C.C.N.C.C.H.H.H.H.H.H.H.H.H.H.H pbc="F F F"
C        1.56006941      -0.50148979       0.87621966
C        3.02756883      -0.08881996       0.86726966
C        3.28610870       1.26344947       0.17395993
N        2.58582890       2.35922912       0.84499966
C        4.73322820       1.67054937       0.07074997
C        5.81184793       1.02373957       0.53512981
H        1.45929941      -1.51743943       1.27255952
H        1.14078961      -0.48951980      -0.13494994
H        0.96022963       0.15915994       1.50982937
H        3.59149866      -0.87341967       0.34701986
H        3.39205855      -0.06857998       1.90216928
H        2.90157882       1.20007951      -0.85182964
H        2.83531890       2.35177904       1.83308931
H        1.58195940       2.19734903       0.80574966
H        4.90162803       2.61046905      -0.45573984
H        5.74648758       0.08328997       1.07072959
H        6.80444744       1.43896946       0.38674985
