14
Properties=species:S:1:pos:R:3 atomization_energy=-1343.55 smiles=C.C.C.C.N.N.H.H.H.H.H.H.H.H pbc="F F F"
C        1.02132962       0.06853997       0.07609997
C        2.50459893      -0.08524996      -0.01549999
C        3.14833886      -1.25178950       0.13793994
C        3.28274865       1.15606953      -0.29621990
N        4.57199812       1.19627952      -0.42726983
N        5.04322825       2.44133898      -0.67163976
H        0.75786968       0.76273967       0.88073967
H        0.52425979      -0.88529967       0.28206988
H        0.61866975       0.45835982      -0.86447963
H        2.61239888      -2.17264908       0.34155988
H        4.23047836      -1.31926944       0.06063997
H        2.66886885       2.07215917      -0.39211984
H        6.01537782       2.37107910      -0.98415959
H        5.09578784       2.97702890       0.19881992
