17
Properties=species:S:1:pos:R:3 atomization_energy=-1708.57 smiles=C.O.C.C.C.C.C.H.H.H.H.H.H.H.H.H.H pbc="F F F"
C        1.05911957       0.03174999      -0.29900989
O        2.47304894       0.15791994      -0.23030991
C        3.00495894       1.41722948      -0.06618997
C        2.30686913       2.56006891       0.03510998
C        4.45904809       1.44276944      -0.00529000
C        5.26099770       0.36968986      -0.08579997
C        6.75188734       0.43312982      -0.01908999
H        0.82197967      -1.02839957      -0.42924982
H        0.65779977       0.57404976      -1.16133960
H        0.58935977       0.36933985       0.63054976
H        1.22571952       2.59518888      -0.00424000
H        2.80500887       3.51614851       0.16364994
H        4.91643785       2.42364904       0.11665995
H        4.83221826      -0.62335977      -0.20701991
H        7.11860742       1.45793947       0.09632996
H        7.18374724       0.01752999      -0.93455966
H        7.11222697      -0.15593994       0.82975967
