19
Properties=species:S:1:pos:R:3 atomization_energy=-1843.66 smiles=C.C.O.C.C.C.C.H.H.H.H.H.H.H.H.H.H.H.H pbc="F F F"
C        1.52644943       0.49715979      -0.95481965
C        2.98336872       0.66217973      -0.56973976
O        3.23636865       2.04542921      -0.34391987
C        4.58578802       2.27592902       0.05141998
C        4.78793816       3.75870849       0.21854992
C        4.59338824       4.59511822      -1.01380958
C        5.13646819       4.30741820       1.39515945
H        1.29051945      -0.55306981      -1.14714949
H        1.29560948       1.08186963      -1.85093922
H        0.87368966       0.86542966      -0.15683993
H        3.62570847       0.29679988      -1.37893948
H        3.19388869       0.09122996       0.34162987
H        5.27106773       1.89729928      -0.71620972
H        4.78536792       1.74012934       0.98719961
H        5.27276794       4.26557814      -1.80699927
H        4.79305796       5.65573765      -0.82630967
H        3.56473867       4.51196800      -1.37944943
H        5.27457817       3.70231851       2.28634904
H        5.27993768       5.37830801       1.50114943
