13
Properties=species:S:1:pos:R:3 atomization_energy=-1368.52 smiles=O.C.C.C.C.C.O.H.H.H.H.H.H pbc="F F F"
O        1.17821955      -0.54314978      -0.40914983
C        2.33075909      -0.28149990      -0.09378997
C        2.87592885       1.08005953      -0.25367990
C        4.14023839       1.35496952       0.09605996
C        4.78706812       2.66618883      -0.01656000
C        4.55734827       3.68691848       1.07013963
O        5.83340762       3.06521867       0.88295968
H        3.01507893      -1.04003961       0.32223988
H        2.20197906       1.82421924      -0.66105976
H        4.77268827       0.56587978       0.49927982
H        4.87392811       3.03259880      -1.03538959
H        3.99539849       3.41015878       1.95355919
H        4.46149822       4.72702792       0.78414966
