12
Properties=species:S:1:pos:R:3 atomization_energy=-1285.95 smiles=C.O.C.C.N.C.C.H.H.H.H.H pbc="F F F"
C        2.33121909       0.04397998       0.51855978
O        1.30428955       0.65387974      -0.32852987
C        2.20227908       1.54167938      -0.78404967
C        2.27085918       2.88832891      -0.94645960
N        3.47293854       3.24579878      -0.34373986
C        3.96439833       2.17183910       0.40206983
C        3.20827864       1.10720962       0.01665999
H        2.56157911      -0.97231964       0.18479992
H        2.10010915       0.05936998       1.58695935
H        1.56814944       3.63425846      -1.29060953
H        3.79781857       4.19846837      -0.24804990
H        4.69722810       2.32937909       1.17908958
