13
Properties=species:S:1:pos:R:3 atomization_energy=-1377.86 smiles=C.C.O.O.C.C.C.H.H.H.H.H.H pbc="F F F"
C        1.37182941      -0.46317982       0.76510969
C        2.62881908      -0.26096990      -0.02535999
O        2.80423901      -0.69168975      -1.15578957
O        3.52827857       0.44418981       0.70910975
C        4.79563830       0.66780975       0.07873997
C        5.74557767      -0.37656986       0.47979981
C        6.51902748      -1.23688947       0.80455966
H        1.03781960       0.48865982       1.18664956
H        1.54853939      -1.19288958       1.55872940
H        0.58436980      -0.83518965       0.10340996
H        5.15314779       1.64324940       0.42597982
H        4.70708820       0.73878971      -1.01113961
H        7.19997719      -2.00514920       1.08866958
