13
Properties=species:S:1:pos:R:3 atomization_energy=-1367.67 smiles=C.C.C.O.C.C.O.H.H.H.H.H.H pbc="F F F"
C        0.99963961      -0.24902990      -0.20741992
C        2.27240900      -0.26594989       0.20586991
C        3.19267876       0.85164966      -0.12546995
O        2.86606875       1.83054934      -0.78288971
C        4.58250822       0.68469973       0.34898987
C        5.19734815       1.72619927       1.24899948
O        4.73755821       0.47041981       1.76235934
H        0.32451989      -1.06342964       0.03387999
H        0.60177977       0.57667975      -0.79231970
H        2.66666902      -1.08759957       0.79227971
H        5.24629789       0.15558994      -0.32259987
H        4.62044824       2.61249905       1.48364937
H        6.26629754       1.88518928       1.19047956
