17
Properties=species:S:1:pos:R:3 atomization_energy=-1684.98 smiles=C.C.O.C.C.C.C.H.H.H.H.H.H.H.H.H.H pbc="F F F"
C        2.73274902       0.89643965      -3.26271860
C        2.89673886       1.38749943      -1.83759922
O        4.13995830       0.90018968      -1.33679952
C        4.41400847       1.33854944       0.00000000
C        5.47117803       0.39776985       0.56851980
C        4.89601820       2.69972896       0.00000000
C        5.29330771       3.82161845       0.00000000
H        1.78383929       1.23725951      -3.68629850
H        2.76510900      -0.19734992      -3.30105882
H        3.55132853       1.26175949      -3.89199843
H        2.07686918       1.00755959      -1.21866951
H        2.87948899       2.48220907      -1.82393927
H        3.50703859       1.24168956       0.60898976
H        6.38819725       0.42060983      -0.03218999
H        5.11017779      -0.63644977       0.55111979
H        5.72949761       0.65944976       1.59996942
H        5.65348786       4.82444797      -0.00663000
