17
Properties=species:S:1:pos:R:3 atomization_energy=-1655.43 smiles=C.C.O.C.C.C.O.H.H.H.H.H.H.H.H.H.H pbc="F F F"
C        3.86947838       3.61644867      -3.12511883
C        4.33515849       3.50485870      -1.68598939
O        5.17175772       2.35318907      -1.57395936
C        5.60893778       2.11964917      -0.23860991
C        6.21429762       0.72413973      -0.18611993
C        6.67245750       3.12204871       0.18171993
O        6.55238719       3.87552852       1.14337954
H        3.24699861       4.50398829      -3.26563883
H        3.29220881       2.73164886      -3.41110856
H        4.72575819       3.67218864      -3.80459846
H        3.46857851       3.40412857      -1.02277958
H        4.89726825       4.40382842      -1.41074949
H        4.76219836       2.17293926       0.45595981
H        7.04140718       0.62676978      -0.89848966
H        5.46764791      -0.02764999      -0.46297982
H        6.59499735       0.49104981       0.81314965
H        7.57823688       3.14654882      -0.44842983
