17
Properties=species:S:1:pos:R:3 atomization_energy=-1682.72 smiles=C.O.C.C.C.C.C.H.H.H.H.H.H.H.H.H.H pbc="F F F"
C        0.76625969       0.78069966       0.39646984
O        2.15356906       0.54775981       0.19223992
C        2.85810896       1.76284925      -0.06690998
C        4.32634809       1.42003944      -0.30010990
C        5.19838775       2.65295885      -0.51538981
C        4.88891810       3.34161880      -1.77709927
C        4.63768802       3.90406845      -2.80770882
H        0.27904989      -0.18061993       0.57994977
H        0.31843987       1.23504947      -0.49263981
H        0.61074977       1.42396950       1.26783954
H        2.75650879       2.43116901       0.79597971
H        2.42736916       2.24901916      -0.94913961
H        4.40947811       0.73250969      -1.15186960
H        4.70068807       0.86294968       0.56833976
H        6.25020738       2.34385912      -0.52874980
H        5.08330804       3.34590868       0.32604986
H        4.41637837       4.40138837      -3.72527863
