15
Properties=species:S:1:pos:R:3 atomization_energy=-1514.82 smiles=C.C.O.C.C.O.C.H.H.H.H.H.H.H.H pbc="F F F"
C        0.77759971       0.22216992       0.10533996
C        2.23569909       0.07362997       0.46158982
O        2.61380890      -0.94490965       1.05427961
C        3.19826866       1.21076952       0.08854996
C        2.69031902       2.65064902      -0.01796999
O        3.76498851       3.13269886       0.82361969
C        4.08361829       1.77268928       1.20663949
H        0.30523989       0.93925964       0.78128968
H        0.27512989      -0.74402968       0.20150993
H        0.68421973       0.55650978      -0.93058966
H        3.79330840       0.92876966      -0.79114971
H        1.71823935       2.86981889       0.43358982
H        2.73393902       3.08491868      -1.02107962
H        5.15145818       1.56052941       1.10715953
H        3.75867846       1.56617936       2.23121920
