17
Properties=species:S:1:pos:R:3 atomization_energy=-1700.73 smiles=C.C.O.C.C.C.C.H.H.H.H.H.H.H.H.H.H pbc="F F F"
C        0.95924964       0.02172999       0.44607984
C        2.37945902       0.35388985      -0.00589000
O        2.39788905       0.22117990      -1.43403941
C        3.57664871      -0.00602000      -2.08137923
C        4.81770820      -0.08128996      -1.59008939
C        2.71550900       1.77237929       0.37832984
C        3.47353859       2.11736911       1.42804945
H        0.85945969       0.08556997       1.53453942
H        0.68922971      -0.99250961       0.13247995
H        0.22653991       0.69630974      -0.01214999
H        3.05649886      -0.37241987       0.46061983
H        3.37843872      -0.12316995      -3.14250875
H        5.04907780       0.04719998      -0.53955980
H        5.65231755      -0.26850989      -2.25869909
H        2.30492920       2.55369905      -0.25822989
H        3.89857848       1.37436950       2.09531914
H        3.67540864       3.16238866       1.64512939
