15
Properties=species:S:1:pos:R:3 atomization_energy=-1549.64 smiles=O.C.C.C.C.C.C.H.H.H.H.H.H.H.H pbc="F F F"
O        0.93790961      -0.00135000       0.00826000
C        2.37858899       0.00672000       0.01279999
C        3.04268877       1.05712956       0.93434965
C        4.12524840       0.00441000       1.24294945
C        3.07720870      -1.07951955       0.88885962
C        3.58003853      -2.23628904       0.17709992
C        4.00077844      -3.19786871      -0.40449984
H        0.69813971      -0.78565967      -0.51574979
H        2.75936897       0.06084997      -1.01629959
H        2.43521893       1.34020953       1.80163924
H        3.40030878       1.96365925       0.43917984
H        4.98658796       0.05510998       0.56514979
H        4.48915827      -0.00526000       2.27412915
H        2.46735912      -1.36421948       1.75796928
H        4.38001844      -4.05379829      -0.91497963
