15
Properties=species:S:1:pos:R:3 atomization_energy=-1466.65 smiles=C.C.C.N.C.C.H.H.H.H.H.H.H.H.H pbc="F F F"
C        0.99105959      -0.01079000       0.07636997
C        2.51999896       0.00000000       0.00000000
C        2.98582895      -0.77052970      -1.25498956
N        4.43639833      -0.98652961      -1.28829944
C        3.00201878       1.36116943       0.00000000
C        3.39929870       2.48306901       0.00000000
H        0.63859975       0.51151980       0.97322961
H        0.61007977      -1.03697959       0.11663996
H        0.54175981       0.48334980      -0.79307967
H        2.89974892      -0.51972978       0.88930966
H        2.68881891      -0.23261991      -2.16407916
H        2.50177912      -1.75348927      -1.28590948
H        4.90915810      -0.08322997      -1.23299953
H        4.69540829      -1.38757942      -2.18868903
H        3.75411858       3.48804864       0.00542000
