17
Properties=species:S:1:pos:R:3 atomization_energy=-1648.63 smiles=C.O.C.C.C.C.O.H.H.H.H.H.H.H.H.H.H pbc="F F F"
C        3.06369888       0.70260970      -2.02853917
O        4.11927850       1.23385947      -1.23601955
C        3.78199841       2.00812923      -0.14217994
C        2.53381888       2.35283909       0.21983992
C        4.99171786       2.49091904       0.63846974
C        5.72473763       1.34275946       1.32067947
O        5.89369763       3.13292874      -0.26213989
H        3.51147861       0.09414997      -2.81951893
H        2.49064904       1.50531946      -2.50396911
H        2.41306904       0.05392998      -1.43321946
H        1.64984938       2.04311925      -0.32124986
H        2.36289903       2.98340884       1.08870958
H        4.70580838       3.23198869       1.39311948
H        6.11479735       0.62561977       0.58884974
H        5.07347823       0.80899969       2.02068915
H        6.59183716       1.72266927       1.87253928
H        5.84129752       2.62223904      -1.09112956
