13
Properties=species:S:1:pos:R:3 atomization_energy=-1389.47 smiles=O.C.C.C.C.C.O.H.H.H.H.H.H pbc="F F F"
O        0.93522966       0.62334974      -0.55529978
C        1.98625918       0.28729989      -0.02347999
C        3.16826874       1.17979952       0.00283000
C        3.55588866       1.97911921      -1.21656948
C        2.97631884       2.68320883      -0.01463999
C        3.83048840       3.54583856       0.83496968
O        4.93286815       3.18182877       1.22199953
H        2.10522920      -0.69445972       0.46358983
H        3.99134832       0.79059969       0.59597974
H        2.93545884       1.90231929      -2.10317913
H        4.61362824       2.09874920      -1.42537940
H        1.96122918       3.05408885      -0.12701995
H        3.41777868       4.53486808       1.09569953
