17
Properties=species:S:1:pos:R:3 atomization_energy=-1651.98 smiles=C.C.C.O.C.C.O.H.H.H.H.H.H.H.H.H.H pbc="F F F"
C        0.82124967      -0.35518987       0.09368996
C        2.31988917      -0.12102996       0.03244999
C        2.66165898       1.36321949       0.03883999
O        4.08233846       1.49693941      -0.00246000
C        4.47660832       2.86345889      -0.04552998
C        5.98403777       2.92469893      -0.07807997
O        6.61707735       3.72856853      -0.75903967
H        0.60367976      -1.42776948       0.08139996
H        0.31676988       0.10359996      -0.76277973
H        0.39565986       0.06707997       1.00972958
H        2.73290900      -0.58836975      -0.86943964
H        2.80921877      -0.61591978       0.87968966
H        2.27895902       1.83780929       0.94988960
H        2.21979920       1.85720927      -0.83429968
H        4.13327834       3.38171877       0.85513965
H        4.07845836       3.34682868      -0.94325966
H        6.50145765       2.26193902       0.63606975
