19
Properties=species:S:1:pos:R:3 atomization_energy=-1847.7 smiles=C.C.C.O.C.C.C.H.H.H.H.H.H.H.H.H.H.H.H pbc="F F F"
C        1.65665929      -0.21766992       2.64702907
C        0.88933962      -0.02713999       1.35088945
C        1.82622930       0.17861993       0.16524994
O        1.02749956       0.38828986      -1.00072961
C        1.68426938       0.60338977      -2.17938910
C        3.00254892       0.62352978      -2.42167909
C        3.58412856       0.87897966      -3.77401843
H        0.96377961      -0.37416984       3.47970859
H        2.26641916       0.66316975       2.87415874
H        2.31915917      -1.08740956       2.58762903
H        0.21390991       0.83152965       1.44110948
H        0.24888990      -0.89749964       1.16565951
H        2.45350891      -0.71138969       0.03362999
H        2.46001906       1.05561961       0.34404985
H        0.94850960       0.76828970      -2.96065891
H        3.72249845       0.45062981      -1.62790930
H        2.81495880       1.09096958      -4.52318817
H        4.15487840       0.00614000      -4.10565842
H        4.26225847       1.73707928      -3.73053848
