17
Properties=species:S:1:pos:R:3 atomization_energy=-1754.73 smiles=C.C.C.C.C.C.C.H.H.H.H.H.H.H.H.H.H pbc="F F F"
C        0.94983964       0.00519000       0.01780999
C        2.47018902       0.00943999       0.01762000
C        3.02738892       1.43281939       0.00000000
C        4.47138809       1.43281939       0.00000000
C        5.66154783       1.43281939       0.00000000
C        7.06754718       1.43281939       0.00000000
C        7.76942676       2.57082907       0.00003000
H        0.57364975      -1.02261960       0.03049999
H        0.55555981       0.49999981      -0.87587964
H        0.55572975       0.52185981       0.89911967
H        2.83121878      -0.54666980      -0.85607965
H        2.83137901      -0.52493979       0.90471966
H        2.65573904       1.98260920       0.87280965
H        2.65571885       1.96083920      -0.88613962
H        7.58178718       0.47644980      -0.00002000
H        7.28296692       3.54156861       0.00005000
H        8.85408680       2.55177907       0.00003000
