16
Properties=species:S:1:pos:R:3 atomization_energy=-1564.22 smiles=C.C.C.N.C.C.O.H.H.H.H.H.H.H.H.H pbc="F F F"
C       -0.93540963      -0.06091998      -1.11914956
C       -0.54462977       1.04387959      -0.09207997
C       -1.13978950       0.03378999       0.92533966
N       -0.68514970      -1.05697962      -0.01434999
C        0.78757966      -1.21210953       0.16434994
C        1.64401939       0.05254998      -0.10682996
O        0.88531967       1.26081955       0.06354997
H       -1.98118921      -0.02586999      -1.45099948
H       -0.30363988      -0.16194994      -2.00761927
H       -1.07603952       1.99433920      -0.18319992
H       -0.68916971       0.02469999       1.92320929
H       -2.22958914       0.08847996       1.04239960
H        0.97122963      -1.55117940       1.19196958
H        1.14303952      -2.02463926      -0.48014983
H        2.01218924       0.04369998      -1.13871961
H        2.50777906       0.08709996       0.56391980
