19
Properties=species:S:1:pos:R:3 atomization_energy=-1767.95 smiles=C.C.C.N.C.C.H.H.H.H.H.H.H.H.H.H.H.H.H pbc="F F F"
C        1.03148962      -0.11888996       0.43179984
C        2.52973894       0.02615999       0.66877971
C        3.07399879       1.43502943       0.36924986
N        2.47055893       2.44066904       1.24627947
C        4.60539820       1.45057947       0.52902980
C        5.24085813       2.78519885       0.15783994
H        0.73166974      -1.16358951       0.56251980
H        0.76355968       0.18574993      -0.58443975
H        0.45170982       0.48060982       1.13950954
H        3.04616892      -0.69920972       0.02720999
H        2.75602885      -0.25701990       1.70487929
H        2.82979891       1.69622937      -0.66732975
H        2.61200903       2.17797908       2.22109921
H        1.46261946       2.47039896       1.10168962
H        5.04119800       0.67466975      -0.11344996
H        4.88383817       1.19689950       1.56005944
H        4.97772810       3.07232886      -0.86570968
H        6.33096752       2.71130894       0.21897991
H        4.92336788       3.58383864       0.83413970
