15
Properties=species:S:1:pos:R:3 atomization_energy=-1543.28 smiles=O.C.C.C.C.C.C.H.H.H.H.H.H.H.H pbc="F F F"
O        2.70079884      -0.77043968       1.10233963
C        2.36229898      -0.00323000      -0.05484998
C        2.92738878       1.43281939       0.00000000
C        2.42244895       2.18051904       1.21221954
C        1.69836927       3.30712865       1.17215956
C        4.37138821       1.43281939       0.00000000
C        5.56154794       1.43281939       0.00000000
H        2.36886919      -1.67165937       0.95324964
H        1.26944954       0.02347999      -0.12801995
H        2.75136880      -0.53131980      -0.93296965
H        2.58216909       1.94646919      -0.90722966
H        2.67176889       1.74823927       2.18191923
H        1.42330940       3.77942842       0.23461990
H        1.37094941       3.78547856       2.09049923
H        6.62686730       1.43192942       0.01042999
