15
Properties=species:S:1:pos:R:3 atomization_energy=-1517.44 smiles=C.C.O.C.C.C.O.H.H.H.H.H.H.H.H pbc="F F F"
C        1.03546957      -0.18652992      -0.36022987
C        2.51933911      -0.31352988      -0.13634994
O        3.08510868      -1.40186945      -0.23851991
C        3.26087860       0.96927961       0.18077992
C        4.72052837       0.76054968       0.42639983
C        5.75380771       1.06322955      -0.62679974
O        5.48458792       1.97484926       0.44914983
H        0.58530979       0.38654985       0.45576983
H        0.57804978      -1.17981958      -0.37725986
H        0.85158967       0.31264988      -1.31503948
H        2.81135879       1.40257951       1.08134958
H        3.10131869       1.66462930      -0.65178974
H        4.93716787       0.01432000       1.18031957
H        5.42977804       1.34936953      -1.61863941
H        6.68821760       0.51681980      -0.59694977
