17
Properties=species:S:1:pos:R:3 atomization_energy=-1671.52 smiles=C.C.O.C.C.C.O.H.H.H.H.H.H.H.H.H.H pbc="F F F"
C        2.49056906      -0.92565962       1.14195955
C        2.08121912       0.25187990       0.29429987
O        0.95268966       0.30172989      -0.20051992
C        3.09247877       1.41059948       0.15184994
C        3.05649886       1.94209919      -1.28060951
C        2.71621880       2.51186909       1.14297959
O        4.43576800       1.00311963       0.40362984
H        3.36778858      -1.41040947       0.70680975
H        1.67458932      -1.65340939       1.17769950
H        2.70539884      -0.58963980       2.15948925
H        3.31209881       1.14932951      -1.99365917
H        3.79394857       2.74086904      -1.42129946
H        2.06882916       2.33173915      -1.54986943
H        2.75088887       2.13774915       2.17310908
H        1.70577936       2.89348883       0.96066963
H        3.42264867       3.34777871       1.08808960
H        4.57062796       0.94492965       1.36493951
