19
Properties=species:S:1:pos:R:3 atomization_energy=-1796.65 smiles=C.C.O.C.C.C.O.H.H.H.H.H.H.H.H.H.H.H.H pbc="F F F"
C        1.10347953      -0.22074992       0.37136985
C        2.61397898      -0.07503997       0.52151979
O        3.23947864      -1.02140961      -0.35352988
C        3.14481884       1.34209949       0.20592992
C        2.48923902       2.41326914       1.07884961
C        4.67339794       1.41035938       0.37484985
O        5.33576799       0.58564974      -0.57524978
H        0.56172975       0.36205987       1.12120959
H        0.80966969      -1.27076948       0.47929981
H        0.77633969       0.09661996      -0.62474974
H        2.89606892      -0.35660986       1.54248936
H        2.87210880      -0.88108965      -1.24658946
H        2.92442893       1.55853940      -0.84822969
H        2.62856902       2.19650902       2.14324921
H        1.41567941       2.48751913       0.88106966
H        2.92116881       3.39920861       0.87537965
H        4.97792795       1.09643962       1.37913945
H        5.03298815       2.43292902       0.21983992
H        4.93912799      -0.30686988      -0.48670980
