13
Properties=species:S:1:pos:R:3 atomization_energy=-1366.65 smiles=C.C.O.C.O.C.C.H.H.H.H.H.H pbc="F F F"
C        0.97211960      -0.05650998       0.11032996
C        2.48375914      -0.04319998      -0.04810998
O        2.81066892      -0.71151970      -1.26674946
C        3.01455888       1.38950951      -0.04342999
O        3.38403871       1.96690928      -1.06191957
C        3.07227890       2.06818924       1.23390956
C        3.12180875       2.63456895       2.29208907
H        0.65988976       0.39553984       1.05670956
H        0.59040979      -1.08226958       0.06984998
H        0.48992980       0.49445981      -0.70526971
H        2.95964882      -0.60184979       0.76444972
H        2.86403900      -0.02131999      -1.95832926
H        3.17191871       3.14685868       3.22549873
