17
Properties=species:S:1:pos:R:3 atomization_energy=-1716.48 smiles=O.C.C.C.C.C.C.H.H.H.H.H.H.H.H.H.H pbc="F F F"
O        0.72464970       0.00852999      -0.12603995
C        2.11973925       0.02943999       0.19790992
C        3.01688891      -0.84638969      -0.63079975
C        2.58339895      -1.46977948      -1.92758926
C        2.86120885      -0.38375985      -2.97144885
C        2.63116904       0.93826962      -2.23245916
C        3.04374881       0.64358973      -0.81715970
H        0.30081989       0.85097966       0.11087995
H        2.38359902       0.14494994       1.24508948
H        3.86753846      -1.32760949      -0.16974994
H        3.14918871      -2.38012896      -2.14886913
H        1.51915945      -1.72784926      -1.90581925
H        3.91129850      -0.44424984      -3.28434869
H        2.23730922      -0.48440981      -3.86370857
H        3.23159884       1.74170931      -2.67067907
H        1.57802934       1.23526950      -2.28209903
H        3.91804836       1.18729956      -0.48777982
