17
Properties=species:S:1:pos:R:3 atomization_energy=-1636.66 smiles=C.O.C.C.C.C.O.H.H.H.H.H.H.H.H.H.H pbc="F F F"
C        1.90867930      -0.69455970      -1.25176957
O        1.71293938       0.40310985      -0.36916987
C        2.93654891       1.03996959       0.07122998
C        3.74602859       0.24455991       1.04907956
C        3.60150864       1.97565924      -0.90427965
C        2.81951893       2.53900908       0.24596990
O        3.60979847       3.15178873       1.27746951
H        2.57567888      -0.42357984      -2.07532921
H        0.93773966      -0.97570964      -1.66861929
H        2.31190919      -1.55213940      -0.70646974
H        4.63913842       0.78251966       1.38429949
H        4.08576840      -0.69341973       0.59907976
H        3.14379866       0.00385000       1.93104922
H        3.17409885       2.07487917      -1.89427926
H        4.68118791       2.05915919      -0.87756963
H        1.84793926       2.97531885       0.03444998
H        3.63338867       4.11782835       1.16677948
