17
Properties=species:S:1:pos:R:3 atomization_energy=-1662.19 smiles=O.C.C.C.C.C.O.H.H.H.H.H.H.H.H.H.H pbc="F F F"
O        0.90225961       0.15662994       0.05885998
C        2.31840899       0.06676997      -0.01470999
C        2.90050894       1.47255942       0.03610999
C        4.42435809       1.45328938      -0.04036999
C        5.00160823       2.86434886       0.00418000
C        6.50921734       2.87297884      -0.07611997
O        7.20916709       1.86838932      -0.14925995
H        0.55806975      -0.75245969       0.02494999
H        2.58780894      -0.43433984      -0.94988960
H        2.67395887      -0.53444978       0.82805965
H        2.57239907       1.96833924       0.95852961
H        2.48561907       2.06719922      -0.78729970
H        4.74137800       0.95426963      -0.96445965
H        4.82818802       0.86276965       0.79130968
H        4.71811810       3.36620873       0.93560961
H        4.62395817       3.45939870      -0.83411970
H        6.97070749       3.87588860      -0.06236998
