14
Properties=species:S:1:pos:R:3 atomization_energy=-1343.91 smiles=C.C.C.C.N.N.H.H.H.H.H.H.H.H pbc="F F F"
C        1.12074959      -0.00811000       0.11369995
C        2.63086902       0.03562998       0.04970998
C        3.30081860      -1.30052943      -0.01020999
C        4.22426823      -1.64620937       0.89389963
N        3.18121863       1.21218952       0.00398000
N        4.52556816       1.27078954      -0.11321995
H        0.74542968       0.84067968       0.69370972
H        0.77788970      -0.93247962       0.58601979
H        0.71850972       0.04804998      -0.90247964
H        2.95384874      -1.98834923      -0.77179969
H        4.53935806      -0.95563960       1.67121931
H        4.68808816      -2.62637904       0.87097968
H        4.81846822       2.23682903      -0.26596989
H        4.86613814       0.72906972      -0.90867961
