13
Properties=species:S:1:pos:R:3 atomization_energy=-1397.91 smiles=O.C.O.C.C.C.C.H.H.H.H.H.H pbc="F F F"
O        2.69120899      -0.85531969       0.29940987
C        2.04211926       0.31861987       0.13155995
O        0.83090967       0.39506984       0.00603000
C        2.96573884       1.49560937       0.15460994
C        2.46608914       2.64829905       0.62977977
C        4.30042812       1.39720939      -0.40824983
C        5.41579788       1.83635927       0.18809992
H        3.63935858      -0.74958968       0.50384978
H        1.44803938       2.71008892       1.00721957
H        3.04524892       3.56568870       0.63731974
H        4.36875841       0.91108963      -1.38208945
H        5.40085785       2.31633912       1.16262951
H        6.38154731       1.72619927      -0.29482990
