13
Properties=species:S:1:pos:R:3 atomization_energy=-1374.26 smiles=O.C.O.C.C.C.C.H.H.H.H.H.H pbc="F F F"
O        4.15140834       2.25360906      -2.86833897
C        3.29564858       2.70416898      -2.12355905
O        3.33159872       2.72204892      -0.76976968
C        4.50974800       2.15183907      -0.17004993
C        5.69390780       3.11882872      -0.20452992
C        5.44589797       4.31178807       0.62363973
C        5.24157778       5.29023784       1.28947946
H        2.35767905       3.16924879      -2.46347902
H        4.76430835       1.20972954      -0.67096975
H        4.24945821       1.89962931       0.86442967
H        5.90204778       3.43680875      -1.23152957
H        6.58682738       2.60317894       0.16656993
H        5.05633787       6.16146753       1.87477922
