14
Properties=species:S:1:pos:R:3 atomization_energy=-1425.35 smiles=C.C.C.O.N.C.C.H.H.H.H.H.H.H pbc="F F F"
C        0.87333968      -1.11575961       0.93858963
C        1.12068954      -0.38680984      -0.35968985
C        0.85778964       1.07641953      -0.50076980
O       -0.24723991       1.45048939       0.33214988
N       -1.46733944       0.81308966      -0.01547999
C       -1.39202941      -0.46997981      -0.20022991
C       -0.11563995      -1.22019952      -0.19467992
H        1.48660947      -1.98170926       1.15836953
H        0.59609979      -0.54165977       1.81718928
H        1.90584928      -0.73974970      -1.01338958
H        1.73176935       1.64905933      -0.17640992
H        0.63632972       1.34407953      -1.53981945
H       -2.31237903      -1.03454958      -0.41958985
H       -0.14982995      -2.16425907      -0.72759970
