17
Properties=species:S:1:pos:R:3 atomization_energy=-1695.1 smiles=C.C.O.C.C.C.C.H.H.H.H.H.H.H.H.H.H pbc="F F F"
C        1.39802947      -0.71695971       0.00474000
C        2.89461877      -0.44140982       0.06333997
O        3.55397851      -1.27850949      -0.88275964
C        3.20893873       1.02678957      -0.23086992
C        4.70356818       1.32652952      -0.09536996
C        4.97991784       2.74682886      -0.36416986
C        5.20900787       3.90399855      -0.58631975
H        0.85602969      -0.12635995       0.74949972
H        1.19827951      -1.77836926       0.18710992
H        0.99344960      -0.48650980      -0.98699964
H        3.26934860      -0.71179973       1.05663960
H        3.18206873      -1.09011960      -1.76204935
H        2.63981895       1.67008937       0.45232983
H        2.88797893       1.27620949      -1.25103945
H        5.28048777       0.70849974      -0.79261966
H        5.04262821       1.07433956       0.91618963
H        5.41495812       4.93074806      -0.78495971
