17
Properties=species:S:1:pos:R:3 atomization_energy=-1724.24 smiles=C.C.O.C.C.C.C.H.H.H.H.H.H.H.H.H.H pbc="F F F"
C        0.27380988      -0.05056998       1.05868960
C        1.67425940      -0.58630978       0.90829966
O        1.93823927      -1.75510936       1.18570949
C        2.71509896       0.39682985       0.40742985
C        4.09969835      -0.23786990       0.29775987
C        5.11414797       0.75232968      -0.20172991
C        6.18367772       1.14600959       0.50048981
H        0.26320990       0.73926971       1.81348922
H       -0.39649984      -0.85421965       1.37561942
H       -0.07474997       0.33924988       0.09901996
H        2.74144891       1.24319952       1.10323957
H        2.38794896       0.76266971      -0.57268976
H        4.06794852      -1.08655959      -0.39649984
H        4.40019838      -0.64406973       1.27191948
H        4.96508782       1.14852950      -1.20415958
H        6.38274740       0.76744969       1.49793940
H        6.89060746       1.85645922       0.08376996
