15
Properties=species:S:1:pos:R:3 atomization_energy=-1483.32 smiles=C.C.C.N.C.N.O.H.H.H.H.H.H.H.H pbc="F F F"
C        1.10176961      -0.35825986       0.23864991
C        2.50887897      -0.07109997      -0.14854993
C        3.00486886      -0.36745985      -1.51796946
N        2.76264902       0.98321959      -1.08632959
C        3.82625857       1.85388923      -0.88903966
N        3.53232849       3.11763872      -1.30525951
O        4.92107823       1.57237939      -0.41810983
H        0.77707972       0.33345985       1.02237957
H        1.02070958      -1.37717946       0.62992978
H        0.41153985      -0.26291990      -0.60641976
H        3.19923862      -0.13546995       0.68448973
H        2.31950915      -0.69631971      -2.28579921
H        4.04628840      -0.62892973      -1.65543940
H        2.55939897       3.37725857      -1.36235942
H        4.20925831       3.83049849      -1.07353955
