17
Properties=species:S:1:pos:R:3 atomization_energy=-1751.29 smiles=C.C.C.C.C.C.C.H.H.H.H.H.H.H.H.H.H pbc="F F F"
C        1.00094958      -0.05353998       0.00322000
C        2.51999896       0.00000000       0.00000000
C        3.00201878       1.36116943       0.00000000
C        3.39929870       2.48306901       0.00000000
C        3.88131852       3.84423844       0.00000000
C        2.73027896       4.79887823      -0.13512995
C        2.39920899       5.72562786       0.77440968
H        0.65712977      -1.09279961       0.00313000
H        0.58511979       0.44227982      -0.88084962
H        0.58891977       0.44085983       0.88984964
H        2.89539898      -0.53278982      -0.88087965
H        2.89917890      -0.53412982       0.87844964
H        4.56877837       4.00531839      -0.83803967
H        4.44854808       4.04526848       0.91615966
H        2.14005924       4.72346803      -1.04652957
H        2.95442885       5.84234772       1.69997927
H        1.55278940       6.38580768       0.61041978
