15
Properties=species:S:1:pos:R:3 atomization_energy=-1518.51 smiles=O.C.C.C.O.C.C.H.H.H.H.H.H.H.H pbc="F F F"
O        1.07996958       0.02583999       0.37472986
C        2.48670915       0.02496999       0.12139995
C        2.86395876      -1.29409952      -0.57414975
C        2.67992903      -0.99679962      -2.03233915
O        3.76167843      -0.31229986      -2.67048906
C        2.66191888       0.48256981      -2.21946915
C        2.83723890       1.13708955      -0.88201968
H        0.86197966       0.87034968       0.80772970
H        2.99740894       0.14541994       1.08136951
H        2.22340905      -2.12286917      -0.25773990
H        3.91040852      -1.55166943      -0.37828985
H        2.01781925      -1.63579932      -2.59227899
H        1.98666921       0.94486966      -2.91952891
H        3.87731856       1.45732946      -0.75966968
H        2.17911911       2.00572918      -0.78117972
