13
Properties=species:S:1:pos:R:3 atomization_energy=-1374.64 smiles=O.C.C.C.C.C.O.H.H.H.H.H.H pbc="F F F"
O        1.03810959       0.01637999       0.24304990
C        2.22723918       0.01161000       0.06398998
C        3.44129873      -1.00222960       0.00829000
C        4.22477845      -0.81875967       1.30382954
C        4.24865832       0.72560969       1.34603951
C        3.46174866       1.00301959       0.06984998
O        4.00276833       0.02389999      -0.90982962
H        3.28250869      -1.97001926      -0.46080983
H        3.70395866      -1.24234954       2.16783915
H        5.23335784      -1.23718949       1.24309946
H        5.26996808       1.11384959       1.29388946
H        3.75236841       1.11925957       2.23790901
H        3.32198869       2.00043918      -0.33950988
