19
Properties=species:S:1:pos:R:3 atomization_energy=-1913.22 smiles=C.C.C.C.C.C.C.H.H.H.H.H.H.H.H.H.H.H.H pbc="F F F"
C        1.34695952      -0.36733987      -0.69296970
C        2.65371888      -0.20437991       0.06732997
C        3.03043885       1.24238953       0.20874991
C        4.16179833       1.76801926      -0.28463988
C        4.51071846       3.16027867      -0.12856995
C        5.64614755       3.68409842      -0.61560973
C        6.03032744       5.11993797      -0.46424980
H        1.08869961      -1.42791950      -0.77729969
H        1.42359946       0.04409998      -1.70528933
H        0.52294978       0.14046994      -0.17981993
H        3.44147864      -0.76789971      -0.44582981
H        2.54923910      -0.63947976       1.06763954
H        2.33138916       1.87022931       0.75793970
H        4.85987831       1.13395951      -0.82731969
H        3.81153858       3.79537852       0.41090985
H        6.35124738       3.05656875      -1.15565950
H        5.28093792       5.69401782       0.08981997
H        6.15165739       5.57883768      -1.45015947
H        6.98207704       5.19598808       0.07034997
