19
Properties=species:S:1:pos:R:3 atomization_energy=-1843.18 smiles=C.O.C.C.C.C.C.H.H.H.H.H.H.H.H.H.H.H.H pbc="F F F"
C        4.36072822      -0.13726994       2.13860909
O        3.68407849       1.11326961       2.10809922
C        3.46945864       1.59710937       0.77977966
C        2.35797907       2.63945888       0.85068967
C        4.73822789       2.22550920       0.27279989
C        5.37246806       1.85449924      -0.85159964
C        6.64191734       2.47519905      -1.33606953
H        4.44614841      -0.45356982       3.18196881
H        5.36898790      -0.04928998       1.72346929
H        3.79227838      -0.89658967       1.59258936
H        3.13424868       0.77702969       0.13275994
H        2.61457902       3.45100869       1.54195935
H        1.43745938       2.18494922       1.23382957
H        2.14700920       3.07159887      -0.13320994
H        5.15267795       3.02166882       0.88971963
H        4.96476787       1.05272960      -1.46326946
H        6.98121709       3.28667871      -0.68484974
H        6.49719729       2.88212888      -2.34122907
H        7.43173688       1.71945937      -1.38064939
