21
Properties=species:S:1:pos:R:3 atomization_energy=-1987.81 smiles=C.C.O.C.C.C.C.H.H.H.H.H.H.H.H.H.H.H.H.H.H pbc="F F F"
C        8.42483651       0.09455996      -1.36769950
C        7.02233699       0.42618983      -0.89541967
O        7.11992712       1.08290962       0.36574986
C        5.86033793       1.50906935       0.89316963
C        5.10648820       0.32436987       1.49346935
C        6.13725735       2.55547900       1.98227928
C        6.80248733       3.80811848       1.42545939
H        8.39977648      -0.42546983      -2.32931904
H        8.93806668      -0.53820977      -0.63656975
H        9.02109678       1.00670962      -1.47449946
H        6.44442726      -0.49778980      -0.79962968
H        6.53284766       1.08449956      -1.62143940
H        5.25900782       1.97027916       0.10049996
H        5.73651797      -0.21997992       2.20601913
H        4.81399793      -0.39116985       0.71868970
H        4.19513836       0.65056972       2.00532924
H        6.79658732       2.12980904       2.74922903
H        5.19973773       2.84269884       2.47344913
H        7.77318700       3.57888865       0.97560960
H        6.96660711       4.53461827       2.22733911
H        6.17224762       4.27916820       0.66508974
