17
Properties=species:S:1:pos:R:3 atomization_energy=-1622.6 smiles=C.C.C.N.C.C.H.H.H.H.H.H.H.H.H.H.H pbc="F F F"
C        0.94773961      -0.09092997      -0.10354996
C        2.47212894      -0.01184000       0.07579997
C        2.87004877      -0.78610971       1.34304952
N        3.12073886      -0.66277971      -1.06719960
C        2.89726875       1.44065945       0.07044997
C        3.49494864       2.12906920       1.05433960
H        0.61808976       0.41333983      -1.02073961
H        0.42629984       0.38366984       0.73697974
H        0.60427974      -1.13113958      -0.15886994
H        2.39835914      -0.35977987       2.23682903
H        3.95572848      -0.77871968       1.49991945
H        2.55624912      -1.83580931       1.28471949
H        2.75332891      -0.27761990      -1.93482927
H        2.87992880      -1.65200933      -1.07831958
H        2.68751890       1.98593922      -0.85011965
H        3.75385843       1.68142939       2.00721920
H        3.75240853       3.17463884       0.91489965
