15
Properties=species:S:1:pos:R:3 atomization_energy=-1574.49 smiles=O.C.C.C.C.C.C.H.H.H.H.H.H.H.H pbc="F F F"
O        1.44003947       0.11331996       1.23039951
C        2.62634901       0.07225997       0.42018983
C        2.55776891       0.80209969      -0.89622965
C        3.80933850       1.21119949      -1.64563935
C        4.47090816      -0.08712997      -2.03425914
C        3.74300844      -1.12152955      -1.57940934
C        2.52724894      -0.71618972      -0.85803963
H        0.64851972       0.34223988       0.71463972
H        3.57434871       0.05919998       0.94979964
H        1.66861929       1.34600949      -1.17604950
H        4.46641818       1.81200930      -1.00976957
H        3.55088872       1.78547932      -2.54073907
H        5.39600804      -0.16120993      -2.58610899
H        4.00938849      -2.16164921      -1.72040927
H        1.60704933      -1.22569946      -1.10847960
