13
Properties=species:S:1:pos:R:3 atomization_energy=-1406.44 smiles=O.C.C.C.C.C.O.H.H.H.H.H.H pbc="F F F"
O        1.08290962      -0.05372998       0.35812987
C        2.45653916      -0.01597999       0.01423999
C        2.85550894      -1.22380950      -0.83512966
C        3.38070870      -0.64261977      -2.11428915
C        3.35759869       0.69052972      -2.17698918
C        2.77558882       1.14565961      -0.90768966
O        2.53995912       2.32033907      -0.66221973
H        0.85565965       0.84633966       0.66176976
H        3.06275869       0.05088998       0.92336965
H        2.01149924      -1.89351924      -1.02804958
H        3.64681850      -1.79789932      -0.34091987
H        3.74010864      -1.26938948      -2.92063892
H        3.65873863       1.34523950      -2.97523886
