18
Properties=species:S:1:pos:R:3 atomization_energy=-1723.48 smiles=C.C.N.C.C.O.C.H.H.H.H.H.H.H.H.H.H.H pbc="F F F"
C       -1.45864940       0.74677972       0.13739995
C       -1.47718944      -0.76100969      -0.11126995
N       -0.30227988      -1.48136944       0.38005986
C        0.87928965      -1.21356951      -0.44666982
C        1.67510938       0.04039999      -0.04607998
O        0.90134964       1.15721953       0.38833985
C       -0.23028992       1.45289941      -0.42120985
H       -2.35823897       1.18140952      -0.31472987
H       -1.51873945       0.92666964       1.21863948
H       -1.63254942      -0.96625959      -1.17759957
H       -2.35490896      -1.17566949       0.39851984
H       -0.10607996      -1.18028955       1.33681946
H        1.55284933      -2.07610916      -0.37575985
H        0.60108977      -1.15526951      -1.50663940
H        2.34390908      -0.20964992       0.78511968
H        2.30949917       0.35937986      -0.88092967
H       -0.39066985       2.53404901      -0.34925986
H       -0.04970998       1.22289947      -1.47743938
