15
Properties=species:S:1:pos:R:3 atomization_energy=-1500.15 smiles=O.C.C.C.C.O.C.H.H.H.H.H.H.H.H pbc="F F F"
O        0.98232962      -0.01863999       0.02430999
C        2.42483904       0.01623999      -0.00913000
C        3.11541871       1.04358959      -0.97813960
C        2.66170895       0.04341998      -2.09931922
C        3.18554864      -0.95071964      -1.00155960
O        4.60565810      -0.68501975      -0.84392965
C        4.61784822       0.75447973      -0.81836969
H        0.72662974       0.74491972       0.56969976
H        2.81947881       0.01092000       1.01292958
H        2.75700891       2.07027917      -1.01077959
H        3.23388874       0.07297997      -3.03134875
H        1.59402942       0.00964000      -2.34212914
H        2.91376894      -2.00373917      -1.05269957
H        5.21131771       1.13641961      -1.65389929
H        5.01542791       1.10693962       0.13758994
