11
Properties=species:S:1:pos:R:3 atomization_energy=-1273.67 smiles=O.C.C.C.C.C.O.H.H.H.H pbc="F F F"
O        2.78948899      -1.10578963       0.03645999
C        2.22338911      -0.01665999      -0.00755000
C        2.86066886       1.27528949      -0.00154000
C        2.33753898       2.55398898      -0.04690998
C        3.43964873       3.44374861      -0.01326999
C        4.56443827       2.65651900       0.05036998
O        4.22451830       1.34263948       0.05795998
H        1.12171955       0.01840999      -0.05715997
H        1.28938951       2.81458888      -0.09803996
H        3.41908853       4.52457801      -0.03286999
H        5.62496787       2.86365899       0.09395996
