13
Properties=species:S:1:pos:R:3 atomization_energy=-1304.21 smiles=C.O.N.C.N.C.C.H.H.H.H.H.H pbc="F F F"
C        1.01163960       1.14355958      -0.28099990
O       -0.13387994       1.31318952       0.55710976
N       -1.32105948       0.86404966      -0.05887997
C       -1.39910945      -0.42755983      -0.08600996
N       -0.48823982      -1.41706950       0.20636992
C        0.88090968      -1.31438948       0.17724993
C        1.60588936      -0.21715991      -0.07310997
H        1.74011937       1.89944928       0.02997999
H        0.77224972       1.32568951      -1.33489947
H       -2.35285902      -0.86255964      -0.43012982
H       -0.83861965      -2.36905919       0.19545992
H        1.37934951      -2.26776914       0.33675988
H        2.68761882      -0.28987988      -0.11853996
