17
Properties=species:S:1:pos:R:3 atomization_energy=-1694.6 smiles=C.O.C.C.C.C.C.H.H.H.H.H.H.H.H.H.H pbc="F F F"
C        3.90695840      -0.00118000      -1.26360945
O        2.90674884       0.77513967      -0.61085978
C        3.40335871       1.92503920      -0.00570000
C        2.65804888       3.03174870      -0.13246995
C        4.67449810       1.89168920       0.74481973
C        4.71924804       2.39131910       2.16860926
C        4.81778794       0.92177964       1.89214921
H        3.40126865      -0.75541973      -1.87374921
H        4.53424835      -0.52534980      -0.53645978
H        4.52044836       0.61708978      -1.92798920
H        1.72343926       3.00971892      -0.68255971
H        2.96190895       3.97253853       0.31174988
H        5.55338805       2.07771916       0.13500995
H        3.80867840       2.75334885       2.63265906
H        5.61450773       2.90882881       2.49316908
H        5.77851750       0.44011984       2.02987917
H        3.96916840       0.30040989       2.15775927
