15
Properties=species:S:1:pos:R:3 atomization_energy=-1517.85 smiles=O.C.C.C.C.C.O.H.H.H.H.H.H.H.H pbc="F F F"
O        0.94873960      -0.00801000       0.00807000
C        2.38825908       0.00872000       0.01661999
C        3.04046876       1.05691956       0.94620960
C        4.10883829       0.00279000       1.28482951
C        3.07686880      -1.08083961       0.88872967
C        3.59791847      -2.33703911       0.16511993
O        4.14960846      -2.37028905      -0.93523963
H        0.70767973      -0.60488975      -0.72218972
H        2.77771900       0.06706997      -1.00836958
H        2.41640915       1.34887950       1.79863928
H        3.41428869       1.95875923       0.45433981
H        4.99133784       0.04490998       0.63571977
H        4.43681821      -0.01400000       2.32757896
H        2.44902902      -1.37117941       1.74465931
H        3.42932864      -3.28034873       0.71148974
