19
Properties=species:S:1:pos:R:3 atomization_energy=-1850.85 smiles=C.C.C.O.C.C.C.H.H.H.H.H.H.H.H.H.H.H.H pbc="F F F"
C        1.47755936      -0.27125989       0.33972988
C        2.53391906       0.42052985      -0.52565979
C        2.84522897      -0.42989982      -1.77112924
O        3.95609840       0.09480996      -2.49311911
C        2.12085910       1.85175929      -0.86926963
C        0.86782964       2.06273914      -1.67651940
C        2.85667900       2.90035880      -0.46022982
H        1.23185950       0.33182986       1.22071957
H        1.84682925      -1.24025948       0.69344976
H        0.55218980      -0.45515982      -0.21673992
H        3.45826876       0.46735982       0.06729997
H        1.98965921      -0.49905981      -2.45064899
H        3.11017880      -1.45035944      -1.47408943
H        3.77014843       1.03579962      -2.66050886
H       -0.00532000       1.66530933      -1.15088955
H        0.94583962       1.57177935      -2.65092885
H        0.67795971       3.12539866      -1.86439933
H        3.76277859       2.76897900       0.12478995
H        2.57411896       3.92316841      -0.69267971
