19
Properties=species:S:1:pos:R:3 atomization_energy=-1849.25 smiles=C.C.O.C.C.C.C.H.H.H.H.H.H.H.H.H.H.H.H pbc="F F F"
C        2.39288910      -1.43668939      -0.47067980
C        1.84286929      -0.07389997      -0.07430997
O        0.94543961      -0.21820992       1.02268962
C        2.92176886       0.93748966       0.28458988
C        3.92647849       0.51330981       1.32834946
C        3.41694876       1.85864933      -0.81361968
C        2.52602891       2.40109895       0.26646988
H        3.11266881      -1.35233947      -1.29025954
H        1.57690937      -2.09590922      -0.78591970
H        2.88146878      -1.93493929       0.37319985
H        1.24538950       0.30620988      -0.91157966
H        1.44373940      -0.60076975       1.76235934
H        4.60856798       1.33036949       1.58958939
H        4.54003835      -0.31577989       0.96211959
H        3.42727870       0.19805993       2.24954905
H        2.99926887       1.75988927      -1.80974930
H        4.45817805       2.16241907      -0.81032966
H        2.96199879       3.06971875       1.00032961
H        1.50276940       2.65386901       0.00821000
