15
Properties=species:S:1:pos:R:3 atomization_energy=-1592.0 smiles=O.C.C.C.C.C.C.H.H.H.H.H.H.H.H pbc="F F F"
O        0.95054963       0.52861979      -0.76554969
C        1.92781925       0.33415986      -0.04728998
C        3.18730864       1.18650951      -0.04423998
C        3.78624842       1.31238950       1.36361944
C        3.40325878       2.70333906       1.87716931
C        3.03188874       3.43462860       0.63285972
C        2.91014875       2.60938907      -0.41150983
H        1.97161917      -0.57157975       0.58212978
H        3.90974843       0.72045974      -0.72185973
H        4.88039789       1.24192953       1.30047947
H        3.45539874       0.53007978       2.05515923
H        4.24334826       3.17804884       2.39270894
H        2.54849901       2.65702896       2.55977897
H        2.84365896       4.49942816       0.59768979
H        2.60706888       2.91531877      -1.40482942
