16
Properties=species:S:1:pos:R:3 atomization_energy=-1576.85 smiles=C.C.C.N.C.C.O.H.H.H.H.H.H.H.H.H pbc="F F F"
C        0.94394966       0.05418998      -0.01865999
C        2.45781898       0.02125999       0.01540999
C        3.15396887       1.00129963       0.97985961
N        4.12372836      -0.06492998       1.31522949
C        3.11615880      -1.08243952       0.88122963
C        3.77082846      -2.29191900       0.14906994
O        4.60345827      -2.24068920      -0.75772969
H        0.55413975      -0.79449966      -0.58960977
H        0.58983977       0.97283963      -0.49755980
H        0.51418979       0.01053000       0.98750960
H        2.87289885       0.07340997      -1.00151960
H        2.54964889       1.31832951       1.83810931
H        3.59234851       1.88961920       0.51562981
H        4.94555789      -0.06136997       0.70223972
H        2.48752897      -1.41647942       1.71823935
H        3.43047876      -3.27683880       0.51428980
