19
Properties=species:S:1:pos:R:3 atomization_energy=-1847.41 smiles=O.C.C.C.C.C.C.H.H.H.H.H.H.H.H.H.H.H.H pbc="F F F"
O        0.99314958      -0.36544985      -0.20063992
C        2.38123897      -0.21799992       0.06595998
C        2.75077885       1.25290947      -0.05712998
C        4.23560825       1.48567938       0.21274991
C        4.59756836       2.96656875       0.08284996
C        6.05991782       3.19489877       0.33732986
C        6.53827733       3.97241843       1.31667951
H        0.78473967      -1.31139948      -0.11360996
H        2.94009896      -0.82381967      -0.65487973
H        2.58318901      -0.58928975       1.07606954
H        2.14144908       1.83966922       0.64107973
H        2.48659913       1.61088931      -1.05967962
H        4.83311807       0.89364963      -0.49306981
H        4.48579823       1.12947950       1.22078947
H        3.98698854       3.55730853       0.77640972
H        4.36252835       3.31853881      -0.92848964
H        6.76049739       2.70061893      -0.33268987
H        5.88061779       4.49340803       2.00568918
H        7.60790700       4.10592841       1.44762947
