15
Properties=species:S:1:pos:R:3 atomization_energy=-1466.65 smiles=C.C.C.N.C.C.H.H.H.H.H.H.H.H.H pbc="F F F"
C        0.98558961      -0.01988999      -0.03569999
C        2.51999896       0.00000000       0.00000000
C        3.02127871      -0.74194972       1.24463957
N        3.03794873      -0.68560970      -1.18546953
C        3.00201878       1.36116943       0.00000000
C        3.39929870       2.48306901       0.00000000
H        0.59584979       0.49215981      -0.92378965
H        0.56326979       0.48632980       0.84043965
H        0.59758974      -1.04491957      -0.04436998
H        2.66644899      -0.25921990       2.16310920
H        4.11734842      -0.75756972       1.29132943
H        2.67218902      -1.78114931       1.26145947
H        2.71210883      -0.19897993      -2.01896925
H        2.65172899      -1.62550938      -1.23376952
H        3.76351842       3.48419857      -0.00318000
