13
Properties=species:S:1:pos:R:3 atomization_energy=-1461.51 smiles=O.C.C.C.C.C.C.H.H.H.H.H.H pbc="F F F"
O        0.92880966      -0.02109999      -0.03974998
C        2.15342926       0.00732000      -0.00739000
C        2.92711878       1.26172946      -0.00114000
C        4.26778857       1.34498944       0.03367998
C        4.67455816       2.79148897       0.02791999
C        3.34711861       3.49237865      -0.01554999
C        2.35718902       2.58799895      -0.03158999
H        2.75326886      -0.91750963       0.01923999
H        4.96228796       0.51920979       0.06169997
H        5.27597810       3.02918880      -0.85429964
H        5.22821785       3.04973891       0.93527962
H        3.21866862       4.56446805      -0.03128999
H        1.29581954       2.78750895      -0.06219997
