14
Properties=species:S:1:pos:R:3 atomization_energy=-1414.7 smiles=C.C.C.C.C.N.O.H.H.H.H.H.H.H pbc="F F F"
C       -1.11892953      -0.00174000      -1.01783963
C       -0.55514977       0.99890961       0.03581999
C       -1.05204957      -0.03964998       1.08563959
C       -0.56793975      -1.04951957      -0.00128000
C        0.98227959      -1.10878960      -0.05103998
N        1.67071932      -0.01181999      -0.05317998
O        0.89129967       1.19177958      -0.00692000
H       -2.20734917       0.00832000      -1.14417956
H       -0.64126974       0.01542999      -2.00093918
H       -1.06456955       1.96604921       0.06939998
H       -0.51293980      -0.05791998       2.03664922
H       -2.13035912      -0.03583998       1.28129951
H       -1.05506959      -2.02658915      -0.00344000
H        1.47330947      -2.09323917      -0.08416996
