15
Properties=species:S:1:pos:R:3 atomization_energy=-1523.62 smiles=O.C.C.C.C.C.O.H.H.H.H.H.H.H.H pbc="F F F"
O        2.49974912      -0.88310963      -1.04872958
C        2.21861904      -0.05573998       0.07636997
C        2.94587885       1.28156951      -0.06341997
C        4.44147826       1.12592957       0.03381999
C        5.20074806       1.77566931       0.92626963
C        6.66258731       1.57308933       0.95336962
O        7.37107695       2.16378923       1.75999929
H        2.00363925      -1.71060936      -0.92423962
H        2.52244909      -0.58318977       0.98688963
H        1.13720954       0.11164996       0.11026996
H        2.58120897       1.96933923       0.70794972
H        2.71679891       1.72321936      -1.04018962
H        4.88928802       0.44228982      -0.68633976
H        4.79993803       2.47064902       1.65513937
H        7.07441715       0.86579964       0.21464992
