17
Properties=species:S:1:pos:R:3 atomization_energy=-1699.06 smiles=C.C.O.C.C.C.C.H.H.H.H.H.H.H.H.H.H pbc="F F F"
C        1.37456947       2.88955877       0.00161000
C        2.63174890       2.49834893      -0.20599993
O        3.16871864       1.43491942       0.46819983
C        4.53769823       1.18121951       0.09241996
C        5.61829775       2.12220908       0.69051975
C        6.51760736       0.88328966       0.85113963
C        5.23029807       0.03914999       0.88074964
H        0.95442961       3.73182865      -0.53616979
H        0.74311972       2.37077908       0.71549972
H        3.28504865       2.99504888      -0.91100964
H        4.64214822       1.03325960      -0.99273961
H        5.33014807       2.59009910       1.63906941
H        6.00187760       2.89206896       0.01580999
H        7.15415736       0.68508971      -0.01865999
H        7.12874710       0.85186969       1.75630932
H        5.29083789      -0.92293961       0.36512986
H        4.82461804      -0.12073996       1.88656928
