19
Properties=species:S:1:pos:R:3 atomization_energy=-1904.03 smiles=C.C.C.C.C.C.C.H.H.H.H.H.H.H.H.H.H.H.H pbc="F F F"
C        0.38394986       0.19458992      -0.06593997
C        1.89688924       0.32647987       0.07379997
C        2.46092897       1.73277931       0.14022994
C        1.72741928       2.85721899       0.05873998
C        3.96870840       1.81239928       0.28081990
C        4.39882822       1.71362938       1.71704935
C        5.20464809       0.76247970       2.20745919
H        0.10241995      -0.86308967      -0.11337996
H        0.02317999       0.67475971      -0.98230962
H       -0.13549995       0.63914978       0.79013969
H        2.35812896      -0.18925992      -0.77717970
H        2.19924909      -0.21648992       0.97712964
H        0.64779976       2.84523880      -0.04859998
H        2.19243917       3.83784840       0.10860996
H        4.33796845       2.76472898      -0.12007995
H        4.43841849       1.03215962      -0.33119988
H        4.02908849       2.48719892       2.38840896
H        5.60362771      -0.02750999       1.57930942
H        5.48002779       0.75826968       3.25745875
