19
Properties=species:S:1:pos:R:3 atomization_energy=-1840.96 smiles=C.O.C.C.C.C.C.H.H.H.H.H.H.H.H.H.H.H.H pbc="F F F"
C        1.53128939      -0.41679982      -0.11624996
O        2.86763875       0.06487997      -0.06093998
C        2.91203896       1.49391938      -0.06743997
C        4.37583832       1.93732924      -0.04885998
C        4.55320802       3.43857860      -0.00033000
C        4.10004833       4.21648836      -1.20379950
C        5.12526821       4.04625837       1.05312961
H        1.55762937      -1.50918946      -0.08921996
H        1.05047956      -0.10211996      -1.04715958
H        0.95766960      -0.05887997       0.74444969
H        2.38672894       1.87700920       0.81525971
H        2.40975896       1.86331922      -0.96856962
H        4.88911795       1.53956939      -0.93371965
H        4.87555817       1.46002941       0.80445968
H        4.56492830       3.81831846      -2.11123923
H        4.36871804       5.27572779      -1.13230952
H        3.01306887       4.15840826      -1.31309944
H        5.47037764       3.48370855       1.91566925
H        5.26909804       5.12222812       1.08111958
