13
Properties=species:S:1:pos:R:3 atomization_energy=-1356.74 smiles=O.C.C.C.O.C.C.H.H.H.H.H.H pbc="F F F"
O        2.69800881      -0.61862976       1.31543943
C        2.34457902       0.02142999       0.08811997
C        2.92738878       1.43281939       0.00000000
C        2.38212894       2.24523924       1.14944950
O        1.46650939       3.05662881       1.02370961
C        4.37138821       1.43281939       0.00000000
C        5.56154794       1.43281939       0.00000000
H        2.36286900      -1.53218946       1.26912945
H        1.25020953       0.05371998       0.03657998
H        2.71146892      -0.60108977      -0.73614969
H        2.56948894       1.89635923      -0.92759967
H        2.80661900       2.02561919       2.14476926
H        6.62771715       1.43107944       0.00293000
