14
Properties=species:S:1:pos:R:3 atomization_energy=-1364.28 smiles=C.C.O.C.N.O.C.H.H.H.H.H.H.H pbc="F F F"
C        1.63989932      -0.17562994      -0.14673995
C        0.76896973      -1.11710959       0.67086971
O       -0.46219983      -1.42959939       0.00471000
C       -1.41820941      -0.48175983      -0.15724994
N       -1.36608950       0.80027968       0.00892000
O       -0.12871995       1.31922944       0.43003983
C        0.88725966       1.08164960      -0.54351976
H        2.01094916      -0.67042977      -1.05143956
H        2.51821901       0.09187996       0.45279983
H        1.30097946      -2.06247924       0.82229969
H        0.55085976      -0.72005973       1.66950939
H       -2.34309910      -0.95810960      -0.51830978
H        1.56345936       1.94217918      -0.55671978
H        0.45754981       0.99463960      -1.54898942
