15
Properties=species:S:1:pos:R:3 atomization_energy=-1536.12 smiles=C.C.C.O.C.C.O.H.H.H.H.H.H.H.H pbc="F F F"
C        1.08616961      -0.26422989       0.10387996
C        2.57875908      -0.01075999      -0.00324000
C        2.93208895       1.46191937       0.10865996
O        2.07772913       2.34190910       0.20558992
C        4.39807829       1.79946932       0.03149999
C        4.73131806       3.09173868       0.71467971
O        5.69740763       3.21454881       1.46367938
H        0.87545964      -1.33632943       0.03610999
H        0.54197978       0.24285991      -0.69999971
H        0.69234972       0.10206996       1.05802957
H        2.94741883      -0.37925984      -0.96647962
H        3.09535888      -0.54772978       0.79904970
H        4.68071807       1.87724930      -1.02166958
H        4.97872784       1.00149960       0.50311979
H        4.11435829       3.96538848       0.44139982
