15
Properties=species:S:1:pos:R:3 atomization_energy=-1581.94 smiles=O.C.C.C.C.C.C.H.H.H.H.H.H.H.H pbc="F F F"
O        0.98643959      -0.08335997      -0.24475990
C        2.37307908      -0.00529000       0.00834000
C        3.02503870      -1.22758955      -0.54924976
C        4.00571833      -0.92358962      -1.41083945
C        4.14729837       0.55913976      -1.57453934
C        3.01457881       1.13254961      -0.75254971
C        2.62854909       2.41576899      -0.77980969
H        0.61766976       0.78839968      -0.03241999
H        2.55779893       0.07204997       1.08466963
H        2.72572892      -2.22992903      -0.27808990
H        4.61674806      -1.64526931      -1.93572921
H        5.11640785       0.88600967      -1.18242957
H        4.05798850       0.84033967      -2.62718902
H        3.14930882       3.14125870      -1.40057940
H        1.78931930       2.77693879      -0.19586993
