15
Properties=species:S:1:pos:R:3 atomization_energy=-1538.75 smiles=C.O.C.O.C.C.C.H.H.H.H.H.H.H.H pbc="F F F"
C        1.81017927       2.96788896       0.69076975
O        3.21079867       2.74095888       0.53539980
C        3.53477863       1.45388943       0.25002990
O        2.73831899       0.53337977       0.12802995
C        5.00963792       1.27783955       0.10624996
C        5.46143804      -0.13484994      -0.11445996
C        5.87201784       2.30706897       0.16486993
H        1.66897937       4.00367848       1.01018958
H        1.39110941       2.31091904       1.45891940
H        1.29669954       2.82548884      -0.26447990
H        5.16051788      -0.76906971       0.72584972
H        6.55019745      -0.20589992      -0.20824992
H        5.02353784      -0.53982979      -1.03263962
H        5.54569801       3.33115866       0.32072987
H        6.94064727       2.15197911       0.05501998
