15
Properties=species:S:1:pos:R:3 atomization_energy=-1539.91 smiles=C.O.C.C.C.C.C.H.H.H.H.H.H.H.H pbc="F F F"
C        1.25763955      -0.29850989      -0.57882980
O        2.49675899      -0.07969997       0.07894997
C        3.06149881       1.16826950       0.00000000
C        2.43245894       2.36005904      -0.03692998
C        0.97995960       2.66910907       0.10530996
C        4.46749816       1.16826950       0.00000000
C        5.65765789       1.16826950       0.00000000
H        1.18944955      -1.36542941      -0.81427965
H        1.18153960       0.25451990      -1.52016940
H        0.42327985      -0.06304997       0.08741997
H        3.05438887       3.25279870      -0.11660995
H        0.47188983       1.97814925       0.78177970
H        0.48635982       2.67169899      -0.87064964
H        0.86253964       3.66745844       0.54145979
H        6.72231715       1.16150954       0.00199000
