17
Properties=species:S:1:pos:R:3 atomization_energy=-1708.02 smiles=O.C.C.C.C.C.C.H.H.H.H.H.H.H.H.H.H pbc="F F F"
O        1.17043955       0.97667961       1.08586959
C        2.57368899       1.17314958       1.23104951
C        3.22842880       1.18288957      -0.14918994
C        4.72463834       1.40741947      -0.08489997
C        5.56637757       0.36080985      -0.15572994
C        5.26930798       2.75338896       0.02128999
C        4.57377806       3.89629841       0.07852997
H        0.79451972       0.95847965       1.98253918
H        2.97217884       0.35692985       1.84270931
H        2.73385903       2.11762926       1.75963934
H        2.74504891       1.92546930      -0.79663968
H        3.00895890       0.22510992      -0.64189974
H        5.19552783      -0.65604973      -0.24637990
H        6.64496752       0.48033980      -0.12526995
H        6.35619761       2.83306887       0.04980998
H        3.49062873       3.93578851       0.05005998
H        5.09390798       4.84731826       0.14874994
