18
Properties=species:S:1:pos:R:3 atomization_energy=-1732.6 smiles=C.C.C.N.C.C.O.H.H.H.H.H.H.H.H.H.H.H pbc="F F F"
C        0.99819961       0.01487000      -0.01082000
C        2.51847891      -0.00801999       0.03537999
C        3.10479885       1.08946960       0.90905963
N        4.47682836       0.62759975       1.15207954
C        4.34186848      -0.81795965       1.41067946
C        3.08406882      -1.28223945       0.66082976
O        3.38512878      -2.23501906      -0.35134986
H        0.61866975      -0.80680970      -0.62672978
H        0.63983977       0.95576961      -0.44108983
H        0.56473975      -0.08449997       0.98990959
H        2.89044874       0.10261996      -0.99292961
H        2.56971906       1.18994955       1.86096926
H        3.09735886       2.06316924       0.40921982
H        5.01967818       0.75620971       0.29754987
H        5.24584773      -1.35443950       1.10388958
H        4.20952830      -0.96719965       2.48872906
H        2.37915900      -1.74320929       1.36149947
H        4.06438837      -1.85092925      -0.93167961
