17
Properties=species:S:1:pos:R:3 atomization_energy=-1700.58 smiles=O.C.C.C.C.C.C.H.H.H.H.H.H.H.H.H.H pbc="F F F"
O        2.84169885      -0.53381977      -1.20044956
C        2.23756912       0.09340996      -0.07716997
C        2.69169902       1.53214934      -0.01093999
C        1.79942932       2.53270888      -0.12139995
C        4.14607835       1.75815929       0.12451995
C        4.66438820       2.71142905       1.17299957
C        4.87303789       1.23591951       1.33748952
H        2.55982894      -1.46277944      -1.18283948
H        2.52978890      -0.44485982       0.83041964
H        1.15061956       0.01239000      -0.18518993
H        0.73877968       2.34424897      -0.24710991
H        2.11917908       3.56998868      -0.10594996
H        4.68076803       1.72035931      -0.82110969
H        3.96458834       3.19550865       1.84384921
H        5.52245780       3.32141867       0.91659966
H        5.87293784       0.84308964       1.19001957
H        4.31490840       0.73543970       2.11954925
