15
Properties=species:S:1:pos:R:3 atomization_energy=-1492.98 smiles=C.C.O.C.C.O.C.H.H.H.H.H.H.H.H pbc="F F F"
C        3.57116858       4.19851833       2.29561919
C        3.94276850       3.38816862       1.30500944
O        4.36697847       2.11078919       1.55343941
C        4.70759791       1.39432941       0.34677985
C        6.09032777       1.64592941      -0.27120989
O        6.39010740       0.22876991      -0.28911989
C        5.23721800      -0.03171999       0.54889978
H        3.23040884       5.20790771       2.09641918
H        3.59884856       3.86325841       3.32725862
H        3.92271850       3.69437865       0.26749990
H        3.88985842       1.41379942      -0.38645986
H        6.80294708       2.19447902       0.35226986
H        6.07795749       2.06924916      -1.27942949
H        4.60638834      -0.82424970       0.13684995
H        5.53630776      -0.28954990       1.56962936
