17
Properties=species:S:1:pos:R:3 atomization_energy=-1639.64 smiles=C.O.C.C.C.C.O.H.H.H.H.H.H.H.H.H.H pbc="F F F"
C        1.36560944      -0.21300991       0.18195994
O        2.78534899      -0.16253994       0.18919993
C        3.26221873       1.17242955       0.01642999
C        4.77341801       1.20722957      -0.04067998
C        5.55900798       0.11721996       0.03561999
C        5.36243789       2.58321904      -0.17110993
O        4.96973829       3.14177875      -1.41500947
H        1.05711959      -1.25066953       0.33530985
H        0.97541959       0.12740995      -0.78218968
H        0.95453962       0.39722983       0.99203958
H        2.91673889       1.78367931       0.85848967
H        2.85247894       1.58039936      -0.91483965
H        5.13412807      -0.87778966       0.13976994
H        6.64150756       0.18436993       0.00037000
H        6.45661738       2.57444901      -0.13083994
H        5.00609822       3.23403863       0.63349976
H        5.25355796       2.51215902      -2.10077921
