13
Properties=species:S:1:pos:R:3 atomization_energy=-1374.78 smiles=C.C.O.C.O.C.C.H.H.H.H.H.H pbc="F F F"
C        0.48196980      -0.56977975       0.27307989
C        1.93679922      -0.41571985      -0.12963995
O        2.30803918       0.96892963      -0.12611995
C        2.04878913       1.64511930      -1.27449944
O        1.53558937       1.19536949      -2.28733919
C        2.45033913       3.02790872      -1.19042948
C        2.78262886       4.18054831      -1.12230950
H        0.20313993      -1.62602930       0.32330986
H       -0.17903993      -0.06741997      -0.44021982
H        0.30335989      -0.11012995       1.25071949
H        2.13463916      -0.87914966      -1.10319957
H        2.57595896      -0.92086961       0.60186979
H        3.07530889       5.20328803      -1.06545952
