17
Properties=species:S:1:pos:R:3 atomization_energy=-1757.3 smiles=C.C.C.C.C.C.C.H.H.H.H.H.H.H.H.H.H pbc="F F F"
C        2.67223898      -0.62294973       1.46740946
C        2.52271909      -0.02850999       0.07409997
C        3.01469893       1.39698949       0.00000000
C        2.16262926       2.42941910      -0.10276996
C        4.39715830       1.65321939       0.00000000
C        5.56738790       1.87010921       0.00000000
C        6.98720743       2.13325916       0.00000000
H        2.28783906      -1.64779931       1.48297944
H        2.11319921      -0.04107998       2.20730905
H        3.72196855      -0.65427975       1.77901926
H        1.46592941      -0.08593996      -0.22062992
H        3.07250877      -0.64466977      -0.64948974
H        1.08825954       2.27850911      -0.11967995
H        2.51670906       3.45425871      -0.16999994
H        7.18859705       3.20880878      -0.01276999
H        7.46966682       1.69226929      -0.87766968
H        7.46556694       1.71402933       0.89048962
