19
Properties=species:S:1:pos:R:3 atomization_energy=-1842.76 smiles=C.O.C.C.C.C.C.H.H.H.H.H.H.H.H.H.H.H.H pbc="F F F"
C        4.96337803      -0.14386994       2.03550919
O        4.06490843       0.95834963       2.08167912
C        3.88679839       1.58931940       0.80816970
C        2.61188891       2.42678905       0.88731965
C        5.09712823       2.43821915       0.46018982
C        5.51631807       3.48834866       1.45341946
C        5.78192750       2.25043902      -0.68118974
H        4.96964795      -0.61805974       3.02019874
H        5.97959775       0.19030992       1.81047929
H        4.63529794      -0.88218963       1.29821946
H        3.72206848       0.81449969       0.04751998
H        2.64815901       3.14222866       1.71568929
H        1.75023936       1.77881929       1.08252960
H        2.42994900       2.97185888      -0.04383998
H        5.67946789       3.04626885       2.44077905
H        4.75104834       4.26586832       1.53974943
H        6.44987761       3.97855840       1.15804958
H        5.49411797       1.49045942      -1.40125944
H        6.65254755       2.85254884      -0.92702965
