12
Properties=species:S:1:pos:R:3 atomization_energy=-1230.06 smiles=C.C.N.N.C.C.H.H.H.H.H.H pbc="F F F"
C        0.98928961       0.06060998      -0.00522000
C        2.47484907       0.01706999      -0.00046000
N        3.23986874       1.06524958      -0.00623000
N        4.59657821       0.62098974      -0.00057000
C        4.59624816      -0.67120972       0.00773000
C        3.23436868      -1.26091948       0.00874999
H        0.63736977       1.09548959       0.00122000
H        0.60850976      -0.45497981       0.88031966
H        0.61507977      -0.44174983      -0.90093967
H        5.49822794      -1.29646954       0.01349000
H        3.05744889      -1.85002931      -0.89157963
H        3.05411887      -1.83878922       0.91579965
