21
Properties=species:S:1:pos:R:3 atomization_energy=-2049.81 smiles=C.C.C.C.C.C.C.H.H.H.H.H.H.H.H.H.H.H.H.H.H pbc="F F F"
C        1.90835921      -0.21892992      -1.39324943
C        2.27103910       0.22964991       0.01579999
C        2.96149892       1.57884942       0.02282999
C        2.04754918       2.78446886       0.04159999
C        1.67539931       3.19321875       1.45968939
C        4.30814845       1.64642941       0.01183000
C        5.16261778       2.87386881       0.03352999
H        1.39792942      -1.18622955      -1.36059941
H        2.80486883      -0.33280988      -2.01179926
H        1.24399953       0.49749981      -1.88502930
H        2.91554889      -0.53070979       0.47619980
H        1.36752944       0.26971991       0.63630973
H        1.13437952       2.56610896      -0.52468979
H        2.50833898       3.63393850      -0.47333981
H        1.15115954       2.38732899       1.98450926
H        1.01468959       4.06622837       1.43962943
H        2.56394901       3.45741866       2.04310915
H        4.87321805       0.71549972      -0.01052000
H        4.59359818       3.80201862       0.11990995
H        5.75926765       2.92360886      -0.88276967
H        5.84917782       2.82672879       0.88466966
