19
Properties=species:S:1:pos:R:3 atomization_energy=-1789.0 smiles=C.C.O.C.C.C.O.H.H.H.H.H.H.H.H.H.H.H.H pbc="F F F"
C        0.81008969       0.93786961      -0.09399996
C        2.27072898       0.61348977      -0.33545986
O        3.03914881       1.78918935      -0.08201997
C        4.43794815       1.55451938      -0.25383990
C        5.20846788       2.82594884       0.09764996
C        4.81587830       4.00833854      -0.78299966
O        3.48725860       4.43582806      -0.51575979
H        0.18213992       0.05896998      -0.26215989
H        0.47920980       1.74185932      -0.75890972
H        0.65876973       1.29010953       0.93134962
H        2.41786914       0.29368990      -1.37313952
H        2.58959898      -0.18999993       0.33804986
H        4.63502794       1.26634952      -1.29258945
H        4.75762813       0.74082968       0.40689983
H        6.28211770       2.63370901      -0.00262000
H        5.00043792       3.08302872       1.14398955
H        4.89433818       3.75429849      -1.84405928
H        5.47971793       4.85557808      -0.58725974
H        2.95261888       3.62439862      -0.38130984
