17
Properties=species:S:1:pos:R:3 atomization_energy=-1698.72 smiles=C.C.O.C.C.C.C.H.H.H.H.H.H.H.H.H.H pbc="F F F"
C        2.21432916      -0.02662999      -0.42426984
C        2.19272910       1.29808951      -0.22572991
O        3.23736864       2.16062903      -0.05434998
C        4.55586809       1.62017938      -0.14288994
C        5.53499765       2.74185894       0.03859999
C        6.21922767       2.96527884       1.36339940
C        7.00638713       2.44617894       0.19183993
H        1.28084948      -0.56884978      -0.54171975
H        3.12763886      -0.60516978      -0.47197981
H        1.26198949       1.85270933      -0.17417993
H        4.70950805       1.17754948      -1.13497956
H        4.70181801       0.85222964       0.62721974
H        5.26413771       3.61067861      -0.55083977
H        6.01290750       2.28239905       2.17899925
H        6.38774760       3.98846846       1.67795933
H        7.70756674       3.12093871      -0.28687989
H        7.33082709       1.41255946       0.21399991
