13
Properties=species:S:1:pos:R:3 atomization_energy=-1365.77 smiles=C.C.C.C.C.N.H.H.H.H.H.H.H pbc="F F F"
C        0.99292961      -0.20735991       0.00057000
C        2.47903903      -0.03833998      -0.00030000
C        3.13901875       1.13798949       0.00000000
C        2.45736908       2.47951896       0.00267000
C        4.54501836       1.13798949       0.00000000
N        5.69602789       1.13798949       0.00000000
H        0.74135970      -1.27264948      -0.01283999
H        0.54529977       0.24853990      -0.88732968
H        0.54976975       0.22577991       0.90182964
H        3.04932887      -0.96771964      -0.00081000
H        1.36658950       2.40658918      -0.00005000
H        2.74942888       3.05474869      -0.88238966
H        2.74534893       3.04880881       0.89287964
