18
Properties=species:S:1:pos:R:3 atomization_energy=-1710.4 smiles=C.C.C.N.C.C.O.H.H.H.H.H.H.H.H.H.H.H pbc="F F F"
C        0.95379960       0.04115999      -0.00415000
C        2.46722892       0.00595000       0.01871999
C        3.17393887       0.96488962       1.00204963
N        4.17060848      -0.10459996       1.26898953
C        3.13105871      -1.10700952       0.86718967
C        3.72655846      -2.30258908       0.13320994
O        4.62549840      -2.99025888       1.00191961
H        0.55844976      -0.79710971      -0.58696975
H        0.59707978       0.96858962      -0.46374981
H        0.53097978      -0.02001999       1.00457962
H        2.87806887       0.07788996      -0.99868958
H        2.58983895       1.24046954       1.88821927
H        3.58799857       1.87549925       0.55928977
H        4.96380800      -0.05808998       0.62589973
H        2.52265903      -1.43226943       1.72342930
H        4.28617847      -1.99741915      -0.75751969
H        2.94355892      -3.00103872      -0.17654994
H        5.02408792      -2.31038915       1.57860932
