15
Properties=species:S:1:pos:R:3 atomization_energy=-1587.86 smiles=O.C.C.C.C.C.C.H.H.H.H.H.H.H.H pbc="F F F"
O        1.71812933      -0.24345991       1.24168956
C        2.41986912      -0.01437999       0.02761999
C        2.96850893       1.36899952       0.02446999
C        4.25150815       1.75846928      -0.09480996
C        4.33626824       3.25660865      -0.06431997
C        2.89649889       3.64648845       0.08400997
C        2.13208911       2.54634890       0.13446995
H        1.40779948      -1.16290960       1.21381958
H        1.72856929      -0.15441993      -0.80974968
H        3.22020886      -0.75716971      -0.05447998
H        5.10399820       1.10376959      -0.19575993
H        4.75867833       3.64746851      -0.99442960
H        4.93015811       3.60152857       0.78691969
H        2.53983900       4.66235794       0.15429993
H        1.05987960       2.51449889       0.25855990
