17
Properties=species:S:1:pos:R:3 atomization_energy=-1753.08 smiles=C.C.C.C.C.C.C.H.H.H.H.H.H.H.H.H.H pbc="F F F"
C        0.99999962       0.00000000       0.00000000
C        2.44399905       0.00000000       0.00000000
C        3.63415853       0.00000000       0.00000000
C        5.07815797       0.00000000       0.00000000
C        5.63275784       1.42616945      -0.07658997
C        7.13670714       1.44608949      -0.07847997
C        7.87940685       2.05961919       0.85143965
H        0.60601976       1.02088962       0.01145999
H        0.60591977      -0.52032980       0.87835968
H        0.60592973      -0.50046981      -0.88982965
H        5.44987774      -0.58734976      -0.84857967
H        5.44974804      -0.49175981       0.90739966
H        5.24169789       2.02173922       0.75883970
H        5.28109790       1.91378926      -0.99486960
H        7.63595715       0.93884960      -0.90185967
H        7.42888706       2.58789902       1.68641937
H        8.96413653       2.04865918       0.79323970
