17
Properties=species:S:1:pos:R:3 atomization_energy=-1626.31 smiles=C.C.C.C.C.N.H.H.H.H.H.H.H.H.H.H.H pbc="F F F"
C        0.98883964       0.02821999       0.06210998
C        2.48720901      -0.13510995       0.04836998
C        2.95118891      -1.55762937       0.19477992
C        3.28942862       0.93962962      -0.09182996
C        4.78324833       0.99367961      -0.11567995
N        5.22042788       1.54610944      -1.38988951
H        0.68248975       1.07434953      -0.04250998
H        0.57620978      -0.34575987       1.00457962
H        0.53905980      -0.53354977      -0.76278970
H        2.51853897      -2.17663919      -0.59819976
H        2.62769898      -1.96003918       1.16038957
H        4.03510836      -1.67287940       0.13728995
H        2.82205890       1.92019923      -0.19076992
H        5.25252795       0.02026999       0.03795998
H        5.12508805       1.64686934       0.69350975
H        4.93312805       0.90964964      -2.13320920
H        6.23840736       1.56131933      -1.41092940
