11
Properties=species:S:1:pos:R:3 atomization_energy=-1259.44 smiles=C.C.O.C.C.C.C.H.H.H.H pbc="F F F"
C        0.96632961      -0.03130999      -0.00613000
C        2.46468895      -0.10066996       0.00139000
O        3.08911873      -1.15420960       0.00578000
C        3.17828881       1.15360955       0.00020000
C        3.77096851       2.19777926      -0.00034000
C        4.52577810       3.53044862      -0.00059000
C        5.11705786       4.57432814      -0.00075000
H        0.61626977       1.00490961       0.00901000
H        0.57863979      -0.54376976       0.87843967
H        0.58874976      -0.51541981      -0.91073965
H        5.64517759       5.49943761      -0.00071000
