17
Properties=species:S:1:pos:R:3 atomization_energy=-1645.18 smiles=C.C.C.O.C.C.O.H.H.H.H.H.H.H.H.H.H pbc="F F F"
C        1.20024958      -0.22004992      -0.53812978
C        2.67909886      -0.24479991      -0.17750993
C        3.13833872       1.04728959       0.50603980
O        2.39695895       1.23520957       1.71074927
C        4.61201836       1.00516957       0.79866968
C        5.22480785       1.70344933       1.98650923
O        4.97014807       0.28904987       1.99049922
H        0.92055962      -1.14974951      -1.04410959
H        0.97527961       0.61369977      -1.21055958
H        0.57380979      -0.12301995       0.35399987
H        3.26856864      -0.41647984      -1.08614955
H        2.85598888      -1.10003963       0.48687981
H        2.93195875       1.90524924      -0.14282995
H        2.73284895       0.56617980       2.33624906
H        5.22150786       0.87060964      -0.08543996
H        4.59932812       2.33119915       2.60950893
H        6.25741750       2.02242922       1.92011924
