17
Properties=species:S:1:pos:R:3 atomization_energy=-1650.61 smiles=O.C.C.C.C.C.O.H.H.H.H.H.H.H.H.H.H pbc="F F F"
O        2.79354900       2.56793886       2.05816916
C        2.59120886       1.27313950       1.49207939
C        3.11968866       1.22726946       0.05848998
C        4.63200804       1.28743949      -0.03220999
C        5.36634802       0.17373993      -0.18906992
C        5.26859792       2.65410898      -0.01385999
O        5.29614794       3.16590868       1.30611945
H        2.43587903       2.53019894       2.96496872
H        1.51412935       1.07426954       1.49397944
H        3.08601884       0.52976979       2.12463928
H        2.69497882       2.05345915      -0.52496979
H        2.76367903       0.30166987      -0.41093984
H        4.91222796      -0.81183967      -0.22360992
H        6.44910749       0.21820992      -0.26789990
H        4.72107795       3.35071862      -0.65731977
H        6.30050760       2.62135891      -0.38116986
H        4.37581813       3.11359890       1.63958934
