16
Properties=species:S:1:pos:R:3 atomization_energy=-1569.8 smiles=C.C.C.C.O.N.C.H.H.H.H.H.H.H.H.H pbc="F F F"
C        0.95458965       0.00416000      -0.03463999
C        2.47385892       0.00373000       0.12903995
C        3.08037874       1.32751954      -0.32829987
C        3.70230867       1.17616948      -1.69975937
O        4.64021840       0.10579996      -1.62529931
N        4.01978832      -1.15060959      -1.47723941
C        3.03575874      -1.17604950      -0.63140977
H        0.50002980       0.81290968       0.54733980
H        0.52379979      -0.94079962       0.31518988
H        0.66524972       0.12959995      -1.08368957
H        2.69382895      -0.15729993       1.19107948
H        2.34985905       2.14369912      -0.32010986
H        3.87002846       1.60094935       0.38328985
H        4.24721852       2.08490921      -1.97374922
H        2.96015879       0.97589959      -2.48107913
H        2.56441910      -2.15527910      -0.43933982
