15
Properties=species:S:1:pos:R:3 atomization_energy=-1517.69 smiles=O.C.C.C.O.C.C.H.H.H.H.H.H.H.H pbc="F F F"
O        0.98258959      -0.00669000       0.15610993
C        2.39338897       0.01521999      -0.04569998
C        2.71462887      -0.66543973      -1.36817944
C        2.37980900      -2.12686913      -1.26206948
O        3.20277882      -3.02009881      -1.45141948
C        2.80785896       1.45723938      -0.05977998
C        3.68029857       2.00690921       0.79528970
H        0.80652968       0.52067981       0.95633963
H        2.85642894      -0.52685978       0.78762969
H        3.77677843      -0.56772975      -1.61802940
H        2.11845918      -0.25554990      -2.19120906
H        1.32586942      -2.36692901      -1.03702961
H        2.35258902       2.08757913      -0.82215970
H        4.16547833       1.42785944       1.57501941
H        3.93168838       3.06180892       0.72706975
