13
Properties=species:S:1:pos:R:3 atomization_energy=-1391.46 smiles=C.C.C.O.C.C.O.H.H.H.H.H.H pbc="F F F"
C        1.10808963      -0.05855998       0.03878999
C        2.61175896      -0.08126997       0.04573998
C        3.20563875      -1.44600937       0.14147994
O        2.50111903      -2.44915897       0.21119992
C        3.32814860       1.05343960      -0.03041999
C        4.80232811       1.20564947      -0.03353998
O        5.59519783       0.28133989       0.05713998
H        0.71238974       0.96032961      -0.03015999
H        0.71315973      -0.50263979       0.95859963
H        0.71972974      -0.62055977      -0.81707971
H        4.29881824      -1.52943943       0.14576994
H        2.80997879       2.00646927      -0.10013996
H        5.14688795       2.25062903      -0.12535995
