19
Properties=species:S:1:pos:R:3 atomization_energy=-1787.98 smiles=C.C.C.O.C.O.C.H.H.H.H.H.H.H.H.H.H.H.H pbc="F F F"
C        1.75651926      -1.76906933      -0.78004972
C        2.84046899      -0.93421964      -0.11095996
C        2.78973880       0.53223980      -0.53775980
O        1.53848941       1.10119959      -0.13787995
C        3.92280834       1.34403941       0.10125996
O        3.79884859       2.70086899      -0.34839985
C        4.81516824       3.52622864       0.20704993
H        1.84092924      -2.81528885      -0.46911983
H        1.84961928      -1.73052927      -1.87000928
H        0.75667968      -1.41741949      -0.50682979
H        3.82059853      -1.36009941      -0.35675987
H        2.70888883      -1.01088961       0.97512960
H        2.84452900       0.61750978      -1.62943931
H        1.64202938       2.06263921      -0.28313990
H        4.89878829       0.94440966      -0.19521993
H        3.83198851       1.32855952       1.19362954
H        4.66957815       4.54563808      -0.16020994
H        5.80396763       3.17870869      -0.10738996
H        4.74751822       3.53512861       1.29924948
