15
Properties=species:S:1:pos:R:3 atomization_energy=-1522.6 smiles=O.C.C.C.O.C.C.H.H.H.H.H.H.H.H pbc="F F F"
O        2.32914896      -0.27696989       1.47899942
C        2.51953895      -0.02220999       0.09668996
C        2.92384882       1.39150948      -0.07123997
C        4.00425834       1.87524932      -0.67398972
O        4.13456826       3.24489871      -0.69461975
C        2.94696893       3.72299857      -0.02675999
C        2.12309905       2.52561913       0.44465981
H        2.13032910      -1.22422950       1.56303935
H        1.58029944      -0.21702991      -0.43001983
H        3.28475873      -0.70663975      -0.28391988
H        4.80773809       1.34016953      -1.15295955
H        2.38066895       4.34154852      -0.73226972
H        3.25013862       4.35685847       0.81389971
H        1.11422960       2.54907912       0.02117999
H        2.04320920       2.51143912       1.53617945
