17
Properties=species:S:1:pos:R:3 atomization_energy=-1689.02 smiles=C.C.O.C.C.C.C.H.H.H.H.H.H.H.H.H.H pbc="F F F"
C        0.94918963       0.10141996      -0.12537995
C        2.46140915       0.01595999      -0.06033998
O        2.98888872       1.33936952      -0.05930998
C        4.41400847       1.33854944       0.00000000
C        4.89601820       2.69972896       0.00000000
C        5.29330771       3.82161845       0.00000000
C        5.77048781       5.20346819      -0.00032000
H        0.50237980      -0.89636963      -0.12805995
H        0.63213976       0.63357975      -1.02789957
H        0.55814980       0.66203975       0.72954972
H        2.84043896      -0.53362977      -0.92935961
H        2.76532903      -0.50505981       0.85449968
H        4.81161794       0.79572971      -0.86497969
H        4.73782820       0.82196970       0.91061966
H        4.97030805       5.89252783      -0.28890989
H        6.59776745       5.33025809      -0.70595971
H        6.12554767       5.49373796       0.99369960
