19
Properties=species:S:1:pos:R:3 atomization_energy=-1853.29 smiles=C.C.C.O.C.C.C.H.H.H.H.H.H.H.H.H.H.H.H pbc="F F F"
C        0.78372972      -0.03967998      -0.06882997
C        2.29214913      -0.23703991       0.10331996
C        2.56622907      -0.98340960       1.41302943
O        2.75963896      -1.08301963      -0.95368964
C        3.08138881       1.09582961       0.09609997
C        2.89845875       1.93578926      -1.14460953
C        3.88153855       2.21297919      -2.01184922
H        0.54105979       0.37139985      -1.05407957
H        0.37571986       0.62444978       0.69971975
H        0.25857989      -1.00007961      -0.00830999
H        2.23118918      -0.40929985       2.28269907
H        3.63626853      -1.19239956       1.52560942
H        2.06090923      -1.95597917       1.42288940
H        2.70410892      -0.57276975      -1.78124924
H        4.14967836       0.87406967       0.22107992
H        2.78280902       1.70479930       0.95871962
H        1.91093930       2.35738912      -1.31962952
H        4.88821813       1.83186929      -1.87511924
H        3.69758856       2.83796889      -2.88074888
