17
Properties=species:S:1:pos:R:3 atomization_energy=-1692.03 smiles=O.C.C.C.C.C.C.H.H.H.H.H.H.H.H.H.H pbc="F F F"
O        0.90629962       0.05037998      -0.00387000
C        2.32565897      -0.00713999       0.01458999
C        2.87331898       1.41266948      -0.00906000
C        4.39981837       1.42744940       0.00731000
C        4.94301792       2.85585893      -0.00770000
C        6.41344754       2.86030879       0.00190000
C        7.61411687       2.86607884       0.00912000
H        0.58341976      -0.86685968       0.01277999
H        2.66314900      -0.57124977      -0.86072967
H        2.64137887      -0.53277979       0.92137963
H        2.47833906       1.96845922       0.85058968
H        2.49794899       1.93202928      -0.89978967
H        4.78204825       0.87563968      -0.86115965
H        4.76352814       0.90172966       0.89957966
H        4.57010816       3.40506875       0.86473966
H        4.58175829       3.38260875      -0.89846966
H        8.67968654       2.87195892       0.01528000
