17
Properties=species:S:1:pos:R:3 atomization_energy=-1643.94 smiles=C.C.O.C.C.O.C.H.H.H.H.H.H.H.H.H.H pbc="F F F"
C        2.34509908      -0.50921980      -1.40945944
C        2.48194891       0.02456999       0.00902000
O        3.18242881      -0.93182962       0.80431970
C        3.25241869       1.33078950       0.02594999
C        2.52243900       2.57232893      -0.50169980
O        2.85618897       3.31732863       0.69494974
C        3.25576864       2.09247915       1.35876950
H        1.78160932       0.18159994      -2.04344917
H        1.83561931      -1.47842940      -1.40611946
H        3.32761870      -0.66842973      -1.86758930
H        1.48659938       0.14691993       0.45007982
H        4.00338830      -1.17321948       0.34041988
H        4.26245832       1.23271957      -0.39407985
H        1.43747944       2.48899905      -0.62067976
H        2.95920876       3.02304882      -1.39708941
H        4.23448841       2.18873924       1.83618932
H        2.51031902       1.78721927       2.09947920
