15
Properties=species:S:1:pos:R:3 atomization_energy=-1506.73 smiles=C.C.C.C.C.N.H.H.H.H.H.H.H.H.H pbc="F F F"
C        0.98463959      -0.00493000      -0.01754000
C        2.51999896       0.00000000       0.00000000
C        3.01475873      -0.72375973       1.26177955
C        3.04308872      -0.73377974      -1.24258950
C        3.00201878       1.36116943       0.00000000
N        3.38622869       2.44615901       0.00000000
H        0.59305977       0.50365981      -0.90727962
H        0.57284980       0.51072979       0.85880968
H        0.59003974      -1.02776962      -0.01796999
H        2.65930902      -0.22671992       2.17202911
H        4.11000835      -0.74213972       1.30752947
H        2.66215885      -1.76076928       1.28832947
H        2.70725903      -0.24635990      -2.16675916
H        2.69323900      -1.77282932      -1.26851944
H        4.14013847      -0.75130969      -1.26541955
