15
Properties=species:S:1:pos:R:3 atomization_energy=-1524.83 smiles=O.C.C.C.C.O.C.H.H.H.H.H.H.H.H pbc="F F F"
O        2.12649921      -0.33670989      -1.37152952
C        2.29729921       0.06483997      -0.02060999
C        3.14447870       1.32307951      -0.00280000
C        2.49192912       2.60019891      -0.60966979
C        3.00697885       3.34952862       0.63500978
O        3.15699887       4.51822834       0.91861964
C        3.26926861       2.02618921       1.37953952
H        1.61274936      -1.16325958      -1.36514945
H        2.79416898      -0.74351972       0.52460981
H        1.31005947       0.23512991       0.42062983
H        4.13477845       1.12938954      -0.44115982
H        1.40007941       2.59203902      -0.67637974
H        2.92404892       2.93823877      -1.55390937
H        4.25306857       1.95653922       1.84833932
H        2.48820900       1.78850931       2.10752920
