15
Properties=species:S:1:pos:R:3 atomization_energy=-1552.41 smiles=C.O.C.C.C.C.C.H.H.H.H.H.H.H.H pbc="F F F"
C        1.02811960       0.07860997      -0.60283975
O        2.36257907      -0.06285997      -0.12267995
C        3.04697891       1.12385957      -0.13174995
C        4.37553805       1.16826950       0.00000000
C        5.07853797       2.38589902       0.00000000
C        5.67361784       3.41660862       0.00000000
C        6.39561730       4.66714820       0.00000000
H        0.56125978      -0.91041963      -0.60454973
H        1.02184961       0.46442981      -1.62797932
H        0.44609984       0.73226972       0.05558998
H        2.43799912       2.01305915      -0.23524991
H        4.93688829       0.24592990       0.11019996
H        5.71553764       5.51474807      -0.12898995
H        7.12789725       4.69939815      -0.81257970
H        6.93442730       4.81110823       0.94154961
