17
Properties=species:S:1:pos:R:3 atomization_energy=-1649.25 smiles=O.C.C.C.O.C.C.H.H.H.H.H.H.H.H.H.H pbc="F F F"
O        0.89335964       0.52926980      -0.62715975
C        2.25791913       0.36529987      -0.25479989
C        2.97456892       1.69680936      -0.43321984
C        4.44201825       1.61811935      -0.00832000
O        5.10781799       0.62212978      -0.77761971
C        5.12749781       2.95322876      -0.15935993
C        6.24670755       3.21793863      -0.84826968
H        0.46989981      -0.34254987      -0.54041981
H        2.69513905      -0.41125983      -0.89042963
H        2.29409914       0.03603999       0.78863971
H        2.44869897       2.47201892       0.13826994
H        2.89653876       1.99212916      -1.48780944
H        4.50511822       1.31562944       1.04316959
H        5.08233808       0.91986962      -1.70334928
H        4.65430807       3.77818846       0.37239987
H        6.79690727       2.44620897      -1.37932945
H        6.65384756       4.22344841      -0.87635964
