19
Properties=species:S:1:pos:R:3 atomization_energy=-1846.74 smiles=C.C.C.O.C.C.C.H.H.H.H.H.H.H.H.H.H.H.H pbc="F F F"
C        1.56391936       0.04945998       0.44896982
C        2.82423879      -0.09665996      -0.40657984
C        2.48346896      -0.83500968      -1.70967939
O        3.66511857      -1.21335958      -2.40965904
C        3.40785878       1.27223956      -0.68754975
C        4.27507841       1.94269923       0.34931986
C        4.88685807       1.45012944      -0.93006961
H        1.78526925       0.56946976       1.38784942
H        1.14458959      -0.93125960       0.69836971
H        0.79345967       0.62639973      -0.07416997
H        3.55902867      -0.69189975       0.15011994
H        1.86938930      -0.22075992      -2.37765914
H        1.93253924      -1.75627930      -1.49500946
H        4.13167831      -0.39235984      -2.64391883
H        2.72820883       1.90708923      -1.24727946
H        4.51314841       1.40521940       1.26082952
H        4.17179847       3.01400880       0.48464981
H        5.19775793       2.19002916      -1.65910930
H        5.53734786       0.58354978      -0.87300963
