21
Properties=species:S:1:pos:R:3 atomization_energy=-2045.86 smiles=C.C.C.C.C.C.C.H.H.H.H.H.H.H.H.H.H.H.H.H.H pbc="F F F"
C        2.79479879      -1.33117947       0.02897999
C        2.29285919      -0.16703993       0.87144965
C        2.90168884       1.19159954       0.47162983
C        2.22525914       2.31538909       1.26544946
C        4.43919820       1.26673950       0.59824978
C        4.97733800       1.02984959       1.98279921
C        5.64877785       1.94524929       2.69398893
H        2.25743920      -2.24653899       0.29737989
H        3.86060843      -1.51579941       0.18925992
H        2.63014886      -1.14343960      -1.03662960
H        2.48030901      -0.37915986       1.93045927
H        1.20244953      -0.11372995       0.75796972
H        2.66262894       1.36138946      -0.58741979
H        2.36487907       2.19155904       2.34431912
H        1.14761959       2.33097912       1.06866955
H        2.62764902       3.29257872       0.97778961
H        4.77031838       2.24810900       0.23267990
H        4.90062829       0.53485982      -0.07531997
H        4.82235816       0.04345998       2.41424894
H        5.84056777       2.94123873       2.30714921
H        6.02208781       1.71248935       3.68635855
