15
Properties=species:S:1:pos:R:3 atomization_energy=-1511.16 smiles=C.O.C.C.C.C.O.H.H.H.H.H.H.H.H pbc="F F F"
C        1.96674918      -0.42342983      -1.54259938
O        2.18185917       0.21024991      -0.28964988
C        3.15306881       1.28129951      -0.28910990
C        2.62579893       2.68194894      -0.69524970
C        2.81382886       3.22733873       0.73515973
C        3.45361855       1.88467932       1.10702958
O        4.01656832       1.48856946       2.10765915
H        1.19564958      -1.18749954      -1.41944949
H        2.88926884      -0.90161964      -1.88360930
H        1.62866932       0.30692987      -2.28297916
H        4.07508848       0.98731960      -0.80503966
H        1.58633937       2.69864898      -1.03935958
H        3.24298882       3.18173868      -1.44972937
H        3.49475864       4.07854845       0.81846968
H        1.88755930       3.43058853       1.27734952
