17
Properties=species:S:1:pos:R:3 atomization_energy=-1672.1 smiles=C.C.C.O.C.C.O.H.H.H.H.H.H.H.H.H.H pbc="F F F"
C        2.71354889      -0.61928973       1.85556925
C        2.89805880      -0.31574986       0.37247986
C        3.26850859       1.13964958       0.08150996
O        2.29043908       2.00873924       0.64588973
C        4.66590824       1.49508945       0.59499976
C        5.84376784       1.00639962      -0.20270992
O        4.80992833       2.15371919       1.62870932
H        2.43672913      -1.66923939       1.99037924
H        1.91796925      -0.00775999       2.29168913
H        3.63447849      -0.43980982       2.41680910
H        1.95068917      -0.54414977      -0.13208995
H        3.65524863      -0.99199959      -0.04006998
H        3.25723872       1.31390954      -1.00077958
H        2.65170906       2.29823914       1.50886938
H        5.91179786      -0.08164997      -0.14131995
H        6.76344714       1.44362938       0.19737993
H        5.73700749       1.32096952      -1.24443947
