14
Properties=species:S:1:pos:R:3 atomization_energy=-1447.67 smiles=C.C.C.C.C.N.O.H.H.H.H.H.H.H pbc="F F F"
C        0.95448960      -0.01075000       0.05155998
C        2.43533904       0.05292998       0.03480999
C        3.28842863       1.13911956      -0.04056998
C        4.61804807       0.64477973      -0.02951999
C        4.54149834      -0.72807970       0.05464998
N        3.22362870      -1.06188954       0.10767996
O        2.75952894      -2.36076910       0.22549991
H        0.51918979       0.99378962       0.07547997
H        0.59606976      -0.55667978       0.93063962
H        0.58380975      -0.51645979      -0.84691965
H        2.98659881       2.17772927      -0.09495997
H        5.52915770       1.22799946      -0.07248997
H        5.30886797      -1.48860945       0.09609997
H        2.20320917      -2.39672908      -0.56865977
