15
Properties=species:S:1:pos:R:3 atomization_energy=-1470.05 smiles=C.C.C.C.C.N.H.H.H.H.H.H.H.H.H pbc="F F F"
C        0.99963961      -0.05396998       0.00268000
C        2.51999896       0.00000000       0.00000000
C        3.00201878       1.36116943       0.00000000
C        3.39929870       2.48306901       0.00000000
C        3.88131852       3.84423844       0.00000000
N        2.76581880       4.77225830      -0.11171995
H        0.65768975      -1.09284958       0.00219000
H        0.58558976       0.44180982      -0.88103963
H        0.58879979       0.43989983       0.88894965
H        2.89581886      -0.53283978      -0.88067968
H        2.89899874      -0.53402977       0.87858968
H        4.57194815       4.00554851      -0.83445966
H        4.43053819       4.05588835       0.92303966
H        2.26332911       4.57694835      -0.97606960
H        3.12838879       5.71892796      -0.19582992
