17
Properties=species:S:1:pos:R:3 atomization_energy=-1645.0 smiles=C.C.O.C.C.C.O.H.H.H.H.H.H.H.H.H.H pbc="F F F"
C        3.94164840      -0.64079977      -1.47665942
C        3.04748887      -0.35659987      -0.27894990
O        3.26679880      -1.35583943       0.71487975
C        3.23208861       1.04451956       0.32074987
C        4.65305802       1.35664941       0.69250970
C        5.00685824       1.88673922       2.05799922
O        5.20355802       0.50866979       1.70965933
H        3.80816844       0.11077996      -2.26094912
H        3.70688848      -1.62552931      -1.89624921
H        4.99908795      -0.67476974      -1.19219958
H        2.00323917      -0.45777981      -0.59404979
H        4.09913843      -1.12779960       1.17437957
H        2.59285910       1.13525952       1.20823952
H        2.89214895       1.79820931      -0.39978983
H        5.28172772       1.61401935      -0.14949995
H        4.21428828       2.11650916       2.75869902
H        5.88926771       2.50653910       2.15613905
