13
Properties=species:S:1:pos:R:3 atomization_energy=-1395.52 smiles=C.C.O.C.C.C.O.H.H.H.H.H.H pbc="F F F"
C        1.00704963       0.11615996      -0.05560998
C        2.51394906       0.08224997      -0.02548999
O        3.12060866      -0.98876962      -0.04718998
C        3.27878882       1.36277942       0.03474999
C        2.68342886       2.56624901       0.08846996
C        4.76854802       1.31996953       0.03922998
O        5.47488780       2.32284901       0.07461997
H        0.65791975       0.68634972      -0.92032962
H        0.62166978       0.54288982       0.87390963
H        0.62532978      -0.90528967      -0.14834995
H        1.60821939       2.70061893       0.09333996
H        3.27388880       3.47957864       0.13189995
H        5.21179815       0.31086987       0.00778000
