17
Properties=species:S:1:pos:R:3 atomization_energy=-1660.8 smiles=O.C.C.C.C.O.C.H.H.H.H.H.H.H.H.H.H pbc="F F F"
O        2.11617911      -0.26583990      -1.43775940
C        2.36345895       0.05818998      -0.07612998
C        3.06291867       1.40272939      -0.00048000
C        2.24057918       2.57036907      -0.50637978
C        2.95071882       3.74251841       0.13658996
O        3.46870872       3.27559860       1.39111951
C        3.37592878       1.84247931       1.41604945
H        1.67920938      -1.13494953      -1.45198937
H        2.99198886      -0.72656968       0.35749986
H        1.40628941       0.07284997       0.45608982
H        3.99011846       1.36658950      -0.58803977
H        1.21050950       2.50815907      -0.13301995
H        2.20460911       2.64626905      -1.59717939
H        3.79835856       4.07473850      -0.47174981
H        2.28691906       4.59453837       0.30612989
H        4.31744837       1.42452942       1.78453926
H        2.57923901       1.57521938       2.11926916
