13
Properties=species:S:1:pos:R:3 atomization_energy=-1350.94 smiles=C.O.C.C.O.C.C.H.H.H.H.H.H pbc="F F F"
C        4.73513835      -1.11620952      -0.06795997
O        3.78409856      -0.21385992      -0.61836973
C        3.81088857       1.06275958       0.00229000
C        5.01071789       1.96573922      -0.29155987
O        5.96753783       1.67302928      -0.99673963
C        4.98176793       3.26244860       0.35555985
C        4.96403813       4.33669821       0.89294966
H        4.60852811      -2.08562912      -0.55766981
H        4.56565804      -1.24626950       1.00534961
H        5.75698759      -0.77268972      -0.24761990
H        3.71271859       0.94351962       1.08810953
H        2.92038886       1.59517941      -0.35097985
H        4.96111815       5.29240789       1.36382950
