11
Properties=species:S:1:pos:R:3 atomization_energy=-1145.25 smiles=C.O.C.N.N.C.C.H.H.H.H pbc="F F F"
C        2.15393923       0.42749984      -0.47943980
O        1.77499924       0.81109971       0.86636965
C        2.99098887       1.35885946       1.07201963
N        3.18894880       2.59135899       1.51481935
N        3.92575834       3.13400871       0.51022979
C        3.97004853       2.34160908      -0.62056974
C        3.40188863       1.16138956      -0.22834991
H        1.49470943       0.82758968      -1.25422954
H        2.24872923      -0.65863971      -0.56966979
H        4.24535833       4.09161845       0.61426979
H        4.29520839       2.73687893      -1.57165936
