13
Properties=species:S:1:pos:R:3 atomization_energy=-1299.08 smiles=C.N.N.C.C.O.C.H.H.H.H.H.H pbc="F F F"
C        0.73506972      -1.24531947       0.60973975
N       -0.55322978      -1.51465937      -0.04381998
N       -1.57730944      -0.61297975       0.04218999
C       -1.27022949       0.65040974       0.05938998
C        0.12160995       1.14681957       0.05500998
O        0.96093963       0.64226972      -1.00450960
C        1.19696953       0.14175994       0.31895986
H        1.47820937      -1.97316924       0.26987989
H        0.62144975      -1.37352949       1.69137932
H       -0.36977985      -1.71030934      -1.03252960
H       -2.07743920       1.39901949       0.10002996
H        0.27691990       2.16773922       0.37417984
H        2.09928920       0.43252984       0.83317964
