19
Properties=species:S:1:pos:R:3 atomization_energy=-1839.45 smiles=C.C.O.C.C.C.C.H.H.H.H.H.H.H.H.H.H.H.H pbc="F F F"
C        1.14142952       1.14046953       0.75305968
C        2.53061907       0.85690969       0.22215991
O        3.34303867       2.00448922       0.45175981
C        4.64964802       1.84387925      -0.09451996
C        5.42752775       3.08852878       0.18593992
C        6.39876741       3.63802854      -0.82860967
C        5.11360798       4.36646825      -0.54873980
H        0.48431982       0.27765989       0.60889974
H        0.70409971       2.00654926       0.24534990
H        1.17726952       1.38209942       1.82075926
H        2.48013894       0.64330977      -0.85185966
H        2.96223875      -0.00701000       0.73963969
H        4.57569830       1.65999940      -1.17241959
H        5.14541787       0.98667962       0.37517986
H        5.67988777       3.17225885       1.23761946
H        6.49585741       3.13958877      -1.78588936
H        7.31923701       4.07837838      -0.46304981
H        5.15917800       5.29261783       0.01222999
H        4.33115853       4.34404811      -1.29992951
