13
Properties=species:S:1:pos:R:3 atomization_energy=-1358.73 smiles=O.C.C.C.O.C.C.H.H.H.H.H.H pbc="F F F"
O        1.06960962      -0.01031000       0.46503982
C        2.41999907       0.00000000       0.00000000
C        2.45009916      -0.59748976      -1.39775948
C        2.10316917      -2.05739918      -1.31124947
O        2.87275881      -2.95017883      -1.65246933
C        2.90201889       1.36116943       0.00000000
C        3.29929881       2.48306901       0.00000000
H        1.05185956       0.51699981       1.28391947
H        3.00649892      -0.61548974       0.69170975
H        3.44171861      -0.50058979      -1.85392922
H        1.71567932      -0.12462995      -2.05894925
H        1.09224953      -2.29281907      -0.93598961
H        3.65458853       3.48827852      -0.00411000
