19
Properties=species:S:1:pos:R:3 atomization_energy=-1783.81 smiles=C.O.C.C.C.C.O.H.H.H.H.H.H.H.H.H.H.H.H pbc="F F F"
C        3.16234879      -0.46444981      -0.92755961
O        4.19365843       0.46124980      -0.61268975
C        3.71246853       1.52258939       0.20939992
C        4.87118830       2.47362905       0.48533981
C        4.44398845       3.63771868       1.37172949
C        5.59979783       4.58809837       1.64572931
O        5.13470792       5.64308778       2.47572895
H        3.58961854      -1.26094950      -1.54314934
H        2.36699916       0.02784999      -1.49608943
H        2.75331882      -0.90948966      -0.01493999
H        3.32740876       1.11141952       1.14935954
H        2.90409885       2.05092915      -0.30857987
H        5.26910813       2.84673891      -0.46721980
H        5.69286769       1.91845928       0.95627964
H        4.04750843       3.26367872       2.32361913
H        3.62197850       4.19093831       0.90136964
H        5.98118744       5.01936781       0.71473970
H        6.41648763       4.07306832       2.16151925
H        5.89082762       6.23311749       2.63671907
