19
Properties=species:S:1:pos:R:3 atomization_energy=-1787.78 smiles=C.C.C.O.C.C.O.H.H.H.H.H.H.H.H.H.H.H.H pbc="F F F"
C        0.51203980       0.50424979       0.28348988
C        1.93044918       0.08841996      -0.06345997
C        2.91594884       1.23641950       0.11335996
O        4.21646842       0.77208968      -0.24860991
C        5.20488780       1.79641927      -0.07699997
C        6.55044726       1.23221957      -0.51953981
O        6.48561730       0.85851969      -1.89496926
H       -0.16998994      -0.34433988       0.17366994
H        0.16677994       1.30516955      -0.37761984
H        0.44869983       0.85992966       1.31648950
H        1.96966928      -0.27625990      -1.09714955
H        2.23533902      -0.75660972       0.56588974
H        2.92349884       1.57079942       1.15699950
H        2.63735898       2.07835920      -0.53045979
H        5.24801778       2.09789923       0.97467963
H        4.93596829       2.65602897      -0.70120970
H        6.80687739       0.33637986       0.05461998
H        7.34485721       1.97399928      -0.39952983
H        5.66382790       0.33466988      -1.97582919
