13
Properties=species:S:1:pos:R:3 atomization_energy=-1421.32 smiles=C.C.C.O.C.C.C.H.H.H.H.H.H pbc="F F F"
C        1.49218940      -0.92061961      -0.40970985
C        2.77766878      -0.55275975      -0.34777988
C        3.16170863       0.84654967       0.01426999
O        2.30305917       1.70219928       0.22849991
C        4.64064837       1.18143955       0.03227999
C        5.40718783       0.33392985       0.95737961
C        6.04072752      -0.35193987       1.71443937
H        1.21469958      -1.93551927      -0.67337971
H        0.68875974      -0.21961992      -0.19740992
H        3.57471863      -1.25531949      -0.55981979
H        4.74806831       2.23241904       0.32439987
H        5.02405814       1.09099961      -0.99007959
H        6.60306742      -0.95327960       2.39111900
