17
Properties=species:S:1:pos:R:3 atomization_energy=-1612.35 smiles=C.C.C.C.N.C.H.H.H.H.H.H.H.H.H.H.H pbc="F F F"
C        3.03083879      -1.17070954      -0.38646986
C        2.37671896       0.10142996       0.12783995
C        3.36003873       1.22942955       0.19932993
C        3.62389850       2.09417924      -1.01378959
N        2.85673880       2.59822896       0.12118996
C        3.60188865       3.53743871       0.95327960
H        2.30348915      -1.98734925      -0.41983985
H        3.85912850      -1.47545946       0.26129990
H        3.43071873      -1.02552962      -1.39528940
H        1.97073916      -0.08085997       1.12979958
H        1.52866944       0.35666985      -0.51989979
H        4.17903836       1.02372961       0.87929968
H        3.05590891       1.91002927      -1.91778921
H        4.62690843       2.47081909      -1.17306959
H        3.19007874       3.53532871       1.96821926
H        3.49091866       4.55062818       0.55253978
H        4.67564823       3.32292862       1.02747957
