15
Properties=species:S:1:pos:R:3 atomization_energy=-1496.38 smiles=O.C.C.C.C.C.O.H.H.H.H.H.H.H.H pbc="F F F"
O        0.94594963       0.13987994      -0.75638969
C        2.27580917       0.09082996      -0.20188992
C        3.25450875      -0.68877974      -1.04238957
C        3.30780868       0.81071970      -1.03060961
C        2.31726921       0.08478997       1.32580949
C        1.41616944       0.93806964       2.18283923
O        1.14203954      -0.45115983       1.96275919
H        0.34387987      -0.38357985      -0.19541993
H        2.88033884      -1.17627950      -1.93471925
H        4.04590839      -1.23057954      -0.53917979
H        4.13522836       1.28673953      -0.51927981
H        2.96621877       1.33955952      -1.91271925
H        3.27188882      -0.18683993       1.76869929
H        0.77827968       1.66319934       1.69300937
H        1.76726933       1.23035951       3.16388877
