15
Properties=species:S:1:pos:R:3 atomization_energy=-1594.95 smiles=O.C.C.C.C.C.C.H.H.H.H.H.H.H.H pbc="F F F"
O        1.37250944       0.35107987       0.69429973
C        2.41977903       0.01088000       0.17221993
C        2.86619895      -1.39806946      -0.13016995
C        4.08520848      -1.24229945      -1.05307958
C        4.55420826       0.17740993      -0.91548966
C        3.82776852       1.29968954      -1.60753936
C        3.49830869       0.96055961      -0.18090994
H        2.06854919      -1.96865920      -0.61192973
H        3.15259872      -1.87828928       0.81074966
H        4.87105810      -1.95268928      -0.77610969
H        3.80561838      -1.44808947      -2.09274915
H        5.59030765       0.29347989      -0.63259976
H        4.37319843       2.21867910      -1.79302932
H        3.09977872       1.06288953      -2.37546916
H        3.80744854       1.64750938       0.59621977
