16
Properties=species:S:1:pos:R:3 atomization_energy=-1537.81 smiles=C.N.C.C.C.O.C.H.H.H.H.H.H.H.H.H pbc="F F F"
C       -1.60835931       0.57937975       0.32225988
N       -1.54909944      -0.85008969      -0.28765987
C       -0.13860995      -0.78419968       0.16337993
C        1.15151950      -1.00044959      -0.58485976
C        2.00098926       0.18626992      -0.01543999
O        1.03309962       1.24577948       0.26028989
C       -0.20112992       0.72249971      -0.24377991
H       -2.37570913       1.21355955      -0.12974995
H       -1.70892933       0.60518977       1.41401945
H       -1.66838929      -0.86900967      -1.30179954
H       -0.02329999      -0.99979959       1.23718949
H        1.62420937      -1.96206919      -0.36658985
H        1.03623956      -0.91380964      -1.67217931
H        2.47790909      -0.08181997       0.93177966
H        2.74717884       0.53940979      -0.73172974
H       -0.25649990       0.94826963      -1.32381948
