15
Properties=species:S:1:pos:R:3 atomization_energy=-1475.1 smiles=C.O.C.O.C.C.C.H.H.H.H.H.H.H.H pbc="F F F"
C        1.03296960      -0.09977996      -0.17595994
O        2.40878900       0.00620000       0.16320994
C        2.89400889       1.33854944       0.00000000
O        2.36955906       2.23759915       0.98368962
C        2.60474895       1.82170930       2.32362897
C        4.33800832       1.33854944       0.00000000
C        5.52816805       1.33854944       0.00000000
H        0.71916969      -1.13404959      -0.01100000
H        0.87642966       0.14542994      -1.23068956
H        0.42160983       0.55014977       0.45722982
H        2.55970908       1.71646937      -0.97425963
H        2.19051918       2.58381908       2.98985893
H        3.67332867       1.73253934       2.53712897
H        2.09709921       0.87633964       2.53546888
H        6.59348741       1.33499952       0.00231000
