17
Properties=species:S:1:pos:R:3 atomization_energy=-1746.04 smiles=O.C.C.C.C.C.C.H.H.H.H.H.H.H.H.H.H pbc="F F F"
O        1.08750962       0.04801998       0.34742986
C        2.28835911       0.01776000       0.08146996
C        3.04830869      -1.28753954       0.00770000
C        3.99765836      -1.29603945      -1.18224953
C        4.89196828      -0.05877998      -1.20181958
C        4.05452828       1.21774951      -1.21704954
C        3.10588867       1.28540949      -0.02835999
H        2.33505907      -2.11375913      -0.08055997
H        3.59913849      -1.41019941       0.94628965
H        4.61674806      -2.19966922      -1.15268955
H        3.41705878      -1.33438951      -2.11251917
H        5.54911760      -0.06142998      -0.32371987
H        5.53663780      -0.08559996      -2.08745915
H        4.71377800       2.09292919      -1.21177948
H        3.47624862       1.25663956      -2.14874928
H        3.66086856       1.41082948       0.90726965
H        2.42940900       2.13917911      -0.14195994
