10
Properties=species:S:1:pos:R:3 atomization_energy=-952.57 smiles=C.C.O.C.H.H.H.H.H.H pbc="F F F"
C        0.35110986       1.06564953      -0.07344997
C        0.97140961      -0.30039989       0.20012993
O       -0.32476988      -0.94428961       0.13585995
C       -0.98134963       0.34505987       0.11590996
H        0.57486977       1.83887930       0.66405972
H        0.52032980       1.44647947      -1.08440960
H        1.42428946      -0.42224983       1.18866959
H        1.64991940      -0.67102975      -0.57223979
H       -1.68399939       0.43335982      -0.71585974
H       -1.49202942       0.54355976       1.06291955
