17
Properties=species:S:1:pos:R:3 atomization_energy=-1634.6 smiles=C.O.C.C.O.C.C.H.H.H.H.H.H.H.H.H.H pbc="F F F"
C        1.34914950       2.87957882      -0.56138980
O        2.62651908       2.82494885       0.05878998
C        3.30158871       1.60320935      -0.23977990
C        4.62460818       1.62132938       0.44526982
O        5.70565786       1.04150957      -0.30162988
C        5.75530757       2.45856891      -0.08924997
C        6.85184736       2.91676891       0.80325966
H        0.90108962       3.85171854      -0.34001987
H        0.69910974       2.09541919      -0.16245993
H        1.44175948       2.77744900      -1.64681938
H        3.41984855       1.50632941      -1.32572950
H        2.71034882       0.75650967       0.12672995
H        4.56212843       1.43120939       1.50758943
H        5.57168763       3.12083879      -0.92450962
H        7.10872714       2.16597921       1.55824935
H        6.55636745       3.83423855       1.32194945
H        7.75122712       3.13061864       0.21711991
