19
Properties=species:S:1:pos:R:3 atomization_energy=-1844.62 smiles=O.C.C.C.C.C.C.H.H.H.H.H.H.H.H.H.H.H.H pbc="F F F"
O        2.47920910       1.67670928      -2.11156915
C        2.32526912       2.20164901      -0.79924967
C        2.96297884       1.25041947       0.20519993
C        4.48336828       1.30098943       0.10925995
C        5.19863807       2.53067913       0.73564970
C        6.31242773       1.56168938       1.18240951
C        5.25175783       0.44288983       1.15053957
H        2.04547918       2.29848921      -2.72089905
H        1.25319953       2.29234897      -0.59763977
H        2.77913886       3.19725882      -0.76170971
H        2.62448908       0.22680991       0.00821000
H        2.63956890       1.52100941       1.21660948
H        4.83434794       1.09228953      -0.91221963
H        4.66078793       2.99338879       1.57103938
H        5.50437776       3.31077862       0.03436999
H        7.11024718       1.43505946       0.44152983
H        6.75977724       1.76623931       2.15811909
H        5.60165801      -0.53028978       0.79596968
H        4.72908795       0.30692987       2.10505913
