17
Properties=species:S:1:pos:R:3 atomization_energy=-1648.23 smiles=O.C.C.O.C.C.C.H.H.H.H.H.H.H.H.H.H pbc="F F F"
O        2.48317903      -1.06273964       0.50424979
C        2.40510900       0.02206999      -0.42932984
C        3.05085875       1.27353945       0.18427993
O        2.49504894       1.48991943       1.48140943
C        4.54129798       1.13204961       0.32785987
C        5.47739799       1.80721930      -0.64436975
C        5.37168785       2.31223899       0.76714972
H        2.04180914      -1.82250931       0.08566996
H        1.34282948       0.20573992      -0.61966974
H        2.90031893      -0.27173988      -1.35984948
H        2.80798891       2.14600921      -0.43253984
H        2.50279905       0.60649975       1.90009928
H        4.82703790       0.16479994       0.72784970
H        5.06445789       2.42995909      -1.42987948
H        6.38254756       1.28141950      -0.92616964
H        6.19655772       2.12131910       1.44408939
H        4.86548813       3.25495866       0.94317960
