17
Properties=species:S:1:pos:R:3 atomization_energy=-1747.73 smiles=C.C.C.C.C.C.C.H.H.H.H.H.H.H.H.H.H pbc="F F F"
C        0.82440968       0.18827993      -0.29329989
C        2.33342901       0.31951988      -0.11691995
C        2.89861898       1.72638927      -0.03875999
C        2.15961920       2.84971895      -0.09248996
C        4.40135809       1.80438927       0.14725994
C        5.09431776       1.57066934      -1.12925959
C        5.66452786       1.38963946      -2.16985906
H        0.54294981      -0.86939965      -0.32922987
H        0.49105981       0.65328972      -1.22685955
H        0.28322988       0.64749973       0.54046977
H        2.81477889      -0.20778992      -0.94946966
H        2.61239888      -0.21374992       0.80065969
H        1.08222958       2.83626894      -0.21586991
H        2.62085904       3.83140840      -0.02726999
H        4.72020791       1.07054955       0.89686963
H        4.69143811       2.78591901       0.54184977
H        6.16682755       1.23361951      -3.09694882
