17
Properties=species:S:1:pos:R:3 atomization_energy=-1692.04 smiles=C.C.C.O.C.C.C.H.H.H.H.H.H.H.H.H.H pbc="F F F"
C        0.98416962      -0.04704998       0.19988991
C        2.49393894      -0.04602998      -0.06843997
C        2.80788898      -0.76568968      -1.38782949
O        2.36172897      -2.11659912      -1.34301949
C        3.01980889       1.39803944      -0.07746997
C        4.49071818       1.45389939      -0.08356997
C        5.69011779       1.50476937      -0.09101996
H        0.75795970       0.45368983       1.14732954
H        0.59366978      -1.06762957       0.26696991
H        0.44053981       0.47314981      -0.59616975
H        2.96649886      -0.60335974       0.75185971
H        3.88200839      -0.77899970      -1.59738933
H        2.30796904      -0.27579989      -2.23005924
H        2.85763886      -2.56174893      -0.63437977
H        2.65853891       1.92626918       0.81364971
H        2.62475907       1.93945930      -0.94555966
H        6.75509750       1.55305939      -0.09898996
