16
Properties=species:S:1:pos:R:3 atomization_energy=-1489.15 smiles=C.C.C.C.N.N.H.H.H.H.H.H.H.H.H.H pbc="F F F"
C        2.11551914      -0.24811990       1.45411943
C        2.44621906       0.11335996       0.01809999
C        2.99712885       1.52405934      -0.06205997
C        2.00945927       2.66757893       0.01628999
N        4.28973836       1.66437937      -0.14580995
N        4.74855834       2.93471875      -0.17409993
H        1.73582936      -1.27267950       1.51178936
H        1.35418944       0.42222984       1.86601929
H        3.00292893      -0.17387994       2.09139917
H        1.55246945       0.04331998      -0.61048974
H        3.18804873      -0.58748974      -0.38077985
H        0.98609964       2.29486901      -0.07871997
H        2.19041926       3.38134860      -0.79170969
H        2.11128919       3.16955865       0.98232962
H        5.74090752       2.92557880      -0.42428984
H        4.72304815       3.34648879       0.76212972
