15
Properties=species:S:1:pos:R:3 atomization_energy=-1454.59 smiles=C.C.N.N.C.O.C.H.H.H.H.H.H.H.H pbc="F F F"
C        1.68222928      -0.07633997      -0.00863999
C        0.77827968      -1.20499946       0.46687982
N       -0.38406984      -1.33631946      -0.41037982
N       -1.46837942      -0.55462978      -0.16642994
C       -1.32351946       0.70958975       0.08510997
O       -0.20824992       1.48269948       0.08798997
C        0.92048966       1.05538961      -0.68038972
H        2.42746908      -0.46198983      -0.71519970
H        2.23212911       0.31191988       0.85715969
H        1.34998951      -2.13974912       0.46305981
H        0.45891981      -1.04279961       1.50372939
H       -0.68727975      -2.31420919      -0.41848985
H       -2.19073922       1.32073952       0.37898985
H        1.58254935       1.92047919      -0.79364968
H        0.59503975       0.78418972      -1.69210931
