21
Properties=species:S:1:pos:R:3 atomization_energy=-2065.25 smiles=C.C.C.C.C.C.C.H.H.H.H.H.H.H.H.H.H.H.H.H.H pbc="F F F"
C        0.97031960       0.00738000       0.01900999
C        2.50114905       0.00061000      -0.00032000
C        2.98426878       0.11636995      -1.45634940
C        3.07340884       1.13078960       0.86704969
C        4.48174831       0.66324975       1.20266956
C        4.35217823      -0.84409966       1.38672944
C        3.07147876      -1.26700949       0.66241976
H        0.58320977      -0.07317997       1.04093961
H        0.56515975      -0.83271964      -0.55567979
H        0.57547979       0.93446964      -0.41193983
H        4.07526839       0.07413997      -1.53424936
H        2.65477892       1.06036962      -1.90391920
H        2.58224907      -0.70004973      -2.06690916
H        2.49734894       1.24010947       1.79456930
H        3.07619887       2.10073922       0.35964986
H        5.16664801       0.88413964       0.37551985
H        4.87776809       1.15514953       2.09660919
H        5.23083806      -1.36608950       0.99546958
H        4.27386823      -1.09131956       2.45182914
H        3.27239878      -2.06212913      -0.06428997
H        2.36909906      -1.68047936       1.39717949
