17
Properties=species:S:1:pos:R:3 atomization_energy=-1649.24 smiles=O.C.C.C.C.C.O.H.H.H.H.H.H.H.H.H.H pbc="F F F"
O        2.16051927      -0.34897987      -1.39514948
C        2.35553903       0.03795998      -0.04054998
C        3.14567878       1.33054953      -0.01866999
C        2.41735893       2.60825887      -0.50890979
C        3.13947875       3.37130860       0.61872974
C        3.25862881       2.02369920       1.36818940
O        4.47679808       1.79708933       2.09941915
H        1.68257939      -1.19620950      -1.38295949
H        2.90429895      -0.75816969       0.47233982
H        1.37502948       0.15209994       0.43270982
H        4.12669830       1.20144954      -0.49962980
H        1.32834946       2.58422887      -0.39142984
H        2.65790884       2.93005895      -1.52551946
H        4.10005843       3.80637841       0.31815988
H        2.54294899       4.13953843       1.11801962
H        2.39509902       1.83529922       2.01823926
H        5.19687780       2.02148916       1.48533936
