19
Properties=species:S:1:pos:R:3 atomization_energy=-1891.76 smiles=C.C.C.C.C.C.C.H.H.H.H.H.H.H.H.H.H.H.H pbc="F F F"
C        0.75892972      -0.32284986       0.68383972
C        2.15940926      -0.47616981       0.08266996
C        2.37953901      -1.92757929      -0.34561986
C        2.33325919       0.51964979      -1.08300954
C        3.69890850       0.49578979      -1.77493932
C        4.79212787       0.89986966      -0.87880965
C        5.69188764       1.22972957      -0.15563994
H        0.60261978       0.69714976       1.05035958
H        0.61996976      -1.00514958       1.52902939
H       -0.01782999      -0.53998977      -0.05755998
H        2.88453890      -0.23840991       0.87060964
H        1.72826926      -2.19778910      -1.18353957
H        2.16739908      -2.61320886       0.48198983
H        3.41669870      -2.10042923      -0.64808974
H        2.14144908       1.53522942      -0.71106973
H        1.56482939       0.31934987      -1.84128932
H        3.66746853       1.18864953      -2.62475907
H        3.90202835      -0.49371979      -2.19726904
H        6.49221728       1.52269940       0.48406983
