16
Properties=species:S:1:pos:R:3 atomization_energy=-1575.44 smiles=C.C.C.N.C.C.O.H.H.H.H.H.H.H.H.H pbc="F F F"
C        0.92842964       0.00907000       0.10933996
C        2.44834899       0.00472000      -0.03931998
C        3.16197888       1.02053957       0.88828967
N        4.09339840      -0.03842998       1.31360952
C        3.15555881      -1.06790953       0.82569966
C        2.87654883       0.03056999      -1.54411943
O        2.61508898      -0.81701965      -2.39702910
H        0.62223973      -0.00856000       1.16102948
H        0.48725979      -0.86629963      -0.37896985
H        0.49739979       0.90601966      -0.34790986
H        2.55164912       1.41105948       1.71148936
H        3.64292856       1.87114931       0.39468984
H        4.98863790      -0.03545999       0.82287967
H        3.63297863      -1.88736929       0.27857989
H        2.54333909      -1.50444942       1.62374937
H        3.46796863       0.91557961      -1.83593926
