13
Properties=species:S:1:pos:R:3 atomization_energy=-1378.22 smiles=C.C.C.C.O.C.O.H.H.H.H.H.H pbc="F F F"
C        0.99999962       0.00000000       0.00000000
C        2.44399905       0.00000000       0.00000000
C        3.63415853       0.00000000       0.00000000
C        5.07815797       0.00000000       0.00000000
O        5.52417769       1.32971948       0.29505990
C        6.67836760       1.41313944       0.99262959
O        7.38385703       0.48830981       1.35896947
H        0.60596979       1.02086963       0.01167999
H        0.60592973      -0.52051980       0.87825963
H        0.60591977      -0.50030980      -0.88991967
H        5.46726790      -0.27570991      -0.98557958
H        5.44499765      -0.72624973       0.73412972
H        6.90204715       2.47512891       1.18458952
