18
Properties=species:S:1:pos:R:3 atomization_energy=-1718.15 smiles=C.C.C.N.C.C.O.H.H.H.H.H.H.H.H.H.H.H pbc="F F F"
C        1.05790958      -0.04675998      -0.01594000
C        2.54893908      -0.04150998      -0.02178999
C        3.36105865      -0.71385970      -1.10010953
N        2.73136903      -1.40313943      -2.22050901
C        3.30035860       0.79205968      -1.03360958
C        4.50585806       1.57000937      -0.62911973
O        5.29468796       1.83484932      -1.77943927
H        0.68610976       0.72853970       0.66123974
H        0.68652970      -1.01290958       0.33870986
H        0.63151978       0.14366994      -1.00539958
H        2.94003890      -0.09871996       0.98923958
H        4.28385853      -1.18762949      -0.76715969
H        1.94449924      -0.87635964      -2.59769907
H        2.35032915      -2.30126914      -1.92376921
H        2.72393888       1.32444942      -1.78215927
H        5.12319808       1.03511959       0.09967996
H        4.21004836       2.52713892      -0.18994993
H        5.40168802       0.98869960      -2.24844914
