14
Properties=species:S:1:pos:R:3 atomization_energy=-1353.47 smiles=C.C.O.N.C.C.O.H.H.H.H.H.H.H pbc="F F F"
C        1.68101935      -0.12196995       0.02525999
C        0.71298972      -1.20720951       0.47708981
O       -0.35185985      -1.26757951      -0.47094983
N       -1.50665946      -0.60874979      -0.00885000
C       -1.34767942       0.65878972       0.24499990
C       -0.06762997       1.48550944       0.21815991
O        1.04075957       1.03318957      -0.52121980
H        2.31981902      -0.51631981      -0.77283967
H        2.33929899       0.17862994       0.84769966
H        1.21739953      -2.17819911       0.50514980
H        0.33311987      -1.01399959       1.48805937
H       -2.24296901       1.19975955       0.59598978
H        0.22710991       1.67707933       1.25715949
H       -0.35185985       2.45783892      -0.19962992
