19
Properties=species:S:1:pos:R:3 atomization_energy=-1767.17 smiles=C.C.C.C.C.N.H.H.H.H.H.H.H.H.H.H.H.H.H pbc="F F F"
C        0.97931963      -0.10946996       0.00500000
C        2.50889890      -0.00662000      -0.01857999
C        3.03669868      -0.78236972      -1.23474957
C        2.99604887       1.46651936      -0.02573999
C        2.47965901       2.27222909       1.16876949
N        4.46203821       1.51862943      -0.02175999
H        0.56722975       0.28620988       0.93775966
H        0.65791975      -1.15404950      -0.06753997
H        0.53286980       0.44032984      -0.82991965
H        2.88839880      -0.50469980       0.88467963
H        2.71383881      -0.31495987      -2.17109926
H        2.66744898      -1.81352935      -1.22736951
H        4.12992839      -0.83157967      -1.23669946
H        2.64766898       1.95239922      -0.94511965
H        2.73482899       1.78961932       2.11902920
H        1.39253950       2.39264914       1.12684957
H        2.90725880       3.28168861       1.17771955
H        4.81883814       1.09649955       0.83489966
H        4.77249801       2.48902908      -0.00984000
