13
Properties=species:S:1:pos:R:3 atomization_energy=-1371.21 smiles=O.C.C.C.C.C.O.H.H.H.H.H.H pbc="F F F"
O        0.97906963      -0.15010994      -0.04900998
C        2.19025903      -0.06660997      -0.00522000
C        3.17969884      -1.21520955       0.05375998
C        4.47729820      -0.38486986      -0.03881999
C        4.31316832       0.71995974      -1.14577959
C        3.23757883       1.13442960      -0.07988997
O        4.31556850       0.77373967       0.92321964
H        3.06144884      -1.87837924      -0.80498970
H        3.10398886      -1.74501927       1.00499963
H        5.44556792      -0.87932964       0.04583998
H        3.93682836       0.38554986      -2.11466917
H        5.15506803       1.40410939      -1.26906952
H        2.90120891       2.16583917      -0.01586000
