14
Properties=species:S:1:pos:R:3 atomization_energy=-1491.18 smiles=C.C.C.C.C.C.H.H.H.H.H.H.H.H pbc="F F F"
C        1.46968940      -0.26018989      -0.00065000
C        0.43926983      -1.35523951       0.00356000
C       -0.88325964      -1.12171955       0.01976999
C       -1.47621948       0.25996989       0.03544999
C       -0.44594982       1.35499942       0.01931999
C        0.87657967       1.12148955       0.00311000
H        2.11126912      -0.37331987       0.88043964
H        2.10244914      -0.37209985      -0.88820962
H        0.80533968      -2.37797910      -0.00712000
H       -1.57754940      -1.95723919       0.02208999
H       -2.12997911       0.37522986      -0.83632968
H       -2.09661915       0.36966987       0.93201963
H       -0.81207970       2.37780903       0.02143999
H        1.57074933       1.95707921      -0.00777000
