15
Properties=species:S:1:pos:R:3 atomization_energy=-1571.76 smiles=C.C.C.O.C.C.C.H.H.H.H.H.H.H.H pbc="F F F"
C        2.39976916      -0.56908975       1.42863939
C        2.55400892      -0.05862998       0.00902000
C        2.97379880       1.38929944       0.00518000
O        2.18264922       2.32378919       0.04599998
C        4.39715830       1.65321939       0.00000000
C        5.56738790       1.87010921       0.00000000
C        6.98720743       2.13325916       0.00000000
H        2.07139915      -1.61257942       1.42533941
H        1.66111937       0.02186999       1.97970916
H        3.34690867      -0.50947980       1.97418916
H        1.60369938      -0.14085995      -0.53099978
H        3.28794869      -0.65908975      -0.54015978
H        7.18865710       3.20879869      -0.01320000
H        7.46974705       1.69189937      -0.87744965
H        7.46553716       1.71438928       0.89068966
