15
Properties=species:S:1:pos:R:3 atomization_energy=-1543.84 smiles=C.C.O.C.C.C.O.H.H.H.H.H.H.H.H pbc="F F F"
C        2.64002889      -1.29838953      -1.31352954
C        2.55804899      -0.47452981      -0.05589998
O        1.98507927      -0.89018966       0.95176966
C        3.27345883       0.84567969      -0.04651998
C        4.69176816       0.70342971       0.42526983
C        4.97282784       1.00535958       1.87281924
O        5.57343779       0.29814988      -0.33347985
H        2.35300916      -0.68771976      -2.17393925
H        1.94740924      -2.14237918      -1.24519949
H        3.65704851      -1.67610937      -1.44274938
H        2.73010889       1.54391945       0.59838976
H        3.26858883       1.28487947      -1.04923960
H        4.64197815       2.02028920       2.10724911
H        6.04800779       0.93978966       2.06020914
H        4.45366838       0.28334990       2.50706900
