15
Properties=species:S:1:pos:R:3 atomization_energy=-1524.4 smiles=C.C.O.C.C.C.O.H.H.H.H.H.H.H.H pbc="F F F"
C        0.88833963      -0.39582984       0.06698998
C        2.34293912       0.05790998       0.02100999
O        3.07316887      -0.82311970      -0.82556965
C        2.60796895       1.45037937      -0.47381981
C        1.69773933       2.34486920      -0.88600967
C        2.12020910       3.68385846      -1.34471945
O        1.30039948       4.50703846      -1.73314935
H        0.29233989       0.23030991       0.73853972
H        0.82777969      -1.43210946       0.41809983
H        0.43200982      -0.38076986      -0.92940964
H        2.76865879      -0.03445999       1.02630957
H        2.66447904      -0.78587970      -1.70740929
H        3.66379863       1.72040927      -0.47527980
H        0.63128978       2.15577922      -0.91239967
H        3.20189869       3.89534838      -1.31882950
