15
Properties=species:S:1:pos:R:3 atomization_energy=-1528.38 smiles=C.C.O.C.O.C.C.H.H.H.H.H.H.H.H pbc="F F F"
C        1.12024960      -1.07854959       0.24989990
C        2.40134901      -0.30989988      -0.02362999
O        3.09906866      -0.96984963      -1.07788961
C        2.10369919       1.14417956      -0.40689983
O        2.26788899       1.54103935      -1.56186941
C        1.62328937       2.05452916       0.67370976
C        1.33448943       3.33499864       0.41497982
H        0.56659980      -0.65884972       1.09564957
H        1.34085953      -2.12974923       0.46508981
H        0.46239981      -1.06463957      -0.62672978
H        3.05592884      -0.31814988       0.85355968
H        2.95094895      -0.42989982      -1.88216925
H        1.51991935       1.64305939       1.67082933
H        1.44034946       3.75352863      -0.58239978
H        0.98635960       3.99807849       1.20050948
