15
Properties=species:S:1:pos:R:3 atomization_energy=-1579.47 smiles=C.C.C.O.C.C.C.H.H.H.H.H.H.H.H pbc="F F F"
C        1.03681961       1.66408931       0.51002979
C        2.36643898       1.81083924       0.56231976
C        3.26037873       0.85121969      -0.13446995
O        2.84919889      -0.08094996      -0.81410971
C        4.71613831       1.12841957       0.02134999
C        5.74670761       0.15629994      -0.50453978
C        5.53911771       1.47047945      -1.19896951
H        0.37763984       2.36239916       1.01410961
H        0.57707975       0.84493967      -0.03795998
H        2.81981896       2.62938884       1.10667960
H        4.98633815       1.63815937       0.94265961
H        5.40121767      -0.74212969      -1.00544960
H        6.65569715       0.01930999       0.06919997
H        6.30912774       2.22612918      -1.09934963
H        5.05559804       1.45228939      -2.16998926
