17
Properties=species:S:1:pos:R:3 atomization_energy=-1725.41 smiles=C.C.C.O.C.C.C.H.H.H.H.H.H.H.H.H.H pbc="F F F"
C        0.92899966       0.07850997       0.02060999
C        2.44380905      -0.01696999       0.01038999
C        3.10716874       1.34279945      -0.02882999
O        2.49757907       2.40610899      -0.04652998
C        4.60091831       1.31421954      -0.04251998
C        5.37339765       2.36490910      -0.80398971
C        5.38531778       2.37095900       0.69803972
H        0.48365981      -0.92065961       0.04917998
H        0.56119979       0.59182978      -0.87429967
H        0.57577975       0.63582972       0.89493967
H        2.76844885      -0.58472975      -0.86806968
H        2.78335886      -0.54022980       0.91065966
H        5.03150797       0.31642986      -0.04203999
H        4.81908795       3.15145868      -1.30581943
H        6.27616773       2.06042917      -1.31946954
H        6.29627752       2.07053920       1.20153950
H        4.83895802       3.16165867       1.20207949
