17
Properties=species:S:1:pos:R:3 atomization_energy=-1679.87 smiles=C.O.C.C.C.C.C.H.H.H.H.H.H.H.H.H.H pbc="F F F"
C        1.09359963      -0.30175989       0.01610999
O        2.48626908      -0.03633999       0.01751999
C        2.89400889       1.33854944       0.00000000
C        2.39940909       2.04865918      -1.26814952
C        2.39902908       2.08002913       1.25106947
C        4.33800832       1.33854944       0.00000000
C        5.52816805       1.33854944       0.00000000
H        0.96044960      -1.38750940       0.03365999
H        0.61514973       0.07550997      -0.89085966
H        0.60707973       0.10572996       0.90544965
H        2.65793886       1.47409940      -2.16647908
H        2.83474889       3.05059885      -1.36839947
H        1.30976955       2.16463908      -1.26930949
H        2.65777889       1.52742935       2.16208927
H        1.30999954       2.19538917       1.24855953
H        2.83444887       3.08337870       1.32577946
H        6.59343744       1.32733950       0.00015000
