17
Properties=species:S:1:pos:R:3 atomization_energy=-1678.48 smiles=C.C.C.C.O.C.O.H.H.H.H.H.H.H.H.H.H pbc="F F F"
C        0.30076987       0.50591979       0.11215996
C        1.55993934       0.16163994       0.89113963
C        2.80601896       0.92444962       0.41994983
C        2.67689904       2.43242916       0.61072977
O        3.93624851       0.50709981       1.21546957
C        4.58399799      -0.60670975       0.79390971
O        4.31054811      -1.28964954      -0.17872993
H       -0.52249978      -0.14493994       0.42327985
H        0.45364981       0.36900986      -0.96254963
H       -0.01056000       1.53904933       0.29073989
H        1.74247930      -0.91674961       0.80502969
H        1.39408944       0.34374986       1.96060920
H        2.99966881       0.72809970      -0.64193974
H        2.45297902       2.67849907       1.65461932
H        1.89632920       2.85784881      -0.02636999
H        3.62318868       2.92832896       0.36746985
H        5.41972769      -0.81323967       1.48046937
