15
Properties=species:S:1:pos:R:3 atomization_energy=-1500.81 smiles=C.C.C.C.O.C.O.H.H.H.H.H.H.H.H pbc="F F F"
C        0.99999962       0.00000000       0.00000000
C        2.44399905       0.00000000       0.00000000
C        3.63415853       0.00000000       0.00000000
C        5.07815797       0.00000000       0.00000000
O        5.56924758      -0.61780974      -1.19843948
C        5.65774772       1.42066938       0.06639998
O        7.08641702       1.37544948       0.04510998
H        0.60600979       1.02087959       0.01187000
H        0.60591977      -0.52070980       0.87812968
H        0.60597976      -0.50010979      -0.89005965
H        5.47378764      -0.59076980       0.83266968
H        4.97593807      -0.34307986      -1.91969923
H        5.34269802       1.94001922       0.97687964
H        5.34130767       2.01435916      -0.79816969
H        7.32028722       0.68305970      -0.60420978
