15
Properties=species:S:1:pos:R:3 atomization_energy=-1467.52 smiles=C.C.C.C.O.N.N.H.H.H.H.H.H.H.H pbc="F F F"
C        0.88668964       0.14337995       0.08206997
C        2.39303899      -0.00507000       0.10360996
C        3.19720886       1.07892960       0.86288963
C        3.83245860      -0.11670996       1.59563942
O        4.83617835      -0.33676987       2.23665921
N        2.82374902      -0.95056963       1.15995960
N        3.12439868      -2.28349921       0.84583967
H        0.41508984      -0.75883970      -0.32212987
H        0.59382976       0.98485962      -0.55347978
H        0.47718982       0.31906988       1.08295958
H        2.81297901      -0.25384990      -0.88021968
H        2.62811886       1.74075928       1.52129934
H        3.89102847       1.65673941       0.24799990
H        2.31150899      -2.84784892       1.09747960
H        3.86768859      -2.58348903       1.48703945
