17
Properties=species:S:1:pos:R:3 atomization_energy=-1638.17 smiles=C.O.C.C.O.C.C.H.H.H.H.H.H.H.H.H.H pbc="F F F"
C        0.50605980       0.50626980       0.35198987
O        1.71807937       0.44083983      -0.39216983
C        2.81569889       1.18056951       0.19788992
C        3.54990866       0.44381983       1.28684954
O        3.86540852      -0.87080968       0.84036970
C        3.61783851       1.97564928      -0.80329971
C        2.73747898       2.68581895       0.18514992
H        0.66525975       0.19112992       1.38664946
H       -0.21531991      -0.17155993      -0.11112996
H        0.09796996       1.52004942       0.32484987
H        2.92638879       0.36204987       2.18185917
H        4.48210813       0.94387964       1.56728937
H        3.15661886      -1.11291963       0.21411992
H        3.30254858       1.94799920      -1.84021930
H        4.69156831       2.03874925      -0.67169975
H        3.21822881       3.23336869       0.98728964
H        1.84201931       3.15852875      -0.19713993
