11
Properties=species:S:1:pos:R:3 atomization_energy=-1233.67 smiles=O.C.O.C.C.C.C.H.H.H.H pbc="F F F"
O        2.73482899      -1.04786957       0.83275970
C        2.20613925       0.02082999       0.56727978
O        2.80907898       1.21099952       0.27353989
C        4.20612840       1.20325951       0.27688990
C        4.90810790       2.30625899       0.00000000
C        6.31410775       2.30625899       0.00000000
C        7.50426698       2.30625899       0.00000000
H        1.11594962       0.17226994       0.52794979
H        4.66084799       0.24973991       0.51690979
H        4.39403847       3.23319862      -0.23358990
H        8.56951669       2.30383913       0.00060000
