14
Properties=species:S:1:pos:R:3 atomization_energy=-1433.7 smiles=C.C.N.C.C.O.C.H.H.H.H.H.H.H pbc="F F F"
C       -1.29631954       0.64879974       0.04972998
C       -1.02216957      -0.79777971      -0.14832995
N       -0.30735988      -1.59443933       0.84345968
C        0.44919982      -1.10628962      -0.30874988
C        1.14088954       0.26443989      -0.28496990
O        0.98889963       1.04724960       0.91028961
C        0.03435999       1.27289953      -0.13374995
H       -1.99535925       1.01173959      -0.71040970
H       -1.71579930       0.85832969       1.03868957
H       -1.74884927      -1.31918945      -0.75552968
H       -0.05763998      -1.03372962       1.66352939
H        0.74271971      -1.83816924      -1.05002959
H        1.96615922       0.47359981      -0.94942960
H        0.05303998       2.21231909      -0.66181972
