15
Properties=species:S:1:pos:R:3 atomization_energy=-1546.83 smiles=C.C.O.C.C.C.C.H.H.H.H.H.H.H.H pbc="F F F"
C        2.34785908      -0.42451983       1.68786939
C        2.68565896      -0.49052982       0.20963991
O        3.81429858       0.34831986      -0.02387999
C        4.30270818       0.43574984      -1.30577943
C        3.81355849      -0.18779992      -2.38930903
C        5.44043802       1.27969948      -1.45722941
C        6.40109743       1.99236925      -1.57826943
H        1.48985937      -1.06138954       1.92065923
H        2.11564922       0.60370979       1.98451923
H        3.20179877      -0.74580969       2.29346907
H        1.82588929      -0.13970995      -0.37256985
H        2.92187887      -1.52633941      -0.05977998
H        2.95385883      -0.84383969      -2.35677898
H        4.27539837      -0.05171998      -3.36316864
H        7.25112726       2.62423901      -1.67854928
