15
Properties=species:S:1:pos:R:3 atomization_energy=-1547.18 smiles=O.C.C.C.C.C.C.H.H.H.H.H.H.H.H pbc="F F F"
O        1.36421948      -0.35251986      -0.92000966
C        2.47024907      -0.28320988      -0.03577999
C        2.83633883       1.15413958       0.11391995
C        4.05325829       1.66043934      -0.14817994
C        4.41150837       3.11074882      -0.00696000
C        5.50478805       3.25965883       0.96402961
C        6.39854738       3.38746865       1.75539929
H        1.15812956      -1.29489954      -1.03411960
H        3.29066883      -0.87974965      -0.44681983
H        2.17514918      -0.69928972       0.93213961
H        2.03985925       1.80965934       0.45851983
H        4.84354793       1.00280958      -0.50480981
H        3.54707852       3.70397859       0.31219988
H        4.72360832       3.49600869      -0.98402964
H        7.19142720       3.49949868       2.45899914
