15
Properties=species:S:1:pos:R:3 atomization_energy=-1589.94 smiles=C.C.C.C.C.C.C.H.H.H.H.H.H.H.H pbc="F F F"
C        0.99077963      -0.00940000       0.07813997
C        2.51999896       0.00000000       0.00000000
C        2.98651882      -0.76945969      -1.24992957
C        4.43254826      -1.05642959      -1.22573958
C        5.61003794      -1.29192947      -1.21042951
C        3.00201878       1.36116943       0.00000000
C        3.39929870       2.48306901       0.00000000
H        0.63956971       0.51901979       0.97198959
H        0.60892976      -1.03490959       0.12590995
H        0.54111977       0.47949982      -0.79397967
H        2.89900883      -0.51313980       0.89386966
H        2.73938887      -0.20912992      -2.16096917
H        2.45065908      -1.72525933      -1.31275955
H        6.65592728      -1.49640939      -1.19668957
H        3.75924847       3.48612866      -0.00021000
