17
Properties=species:S:1:pos:R:3 atomization_energy=-1683.47 smiles=C.C.C.O.C.C.O.H.H.H.H.H.H.H.H.H.H pbc="F F F"
C        0.41535983      -0.61915978      -0.00544000
C        1.92644923      -0.56990976       0.13555995
C        2.47763910       0.82097968      -0.16331994
O        3.90829853       0.82063966      -0.04411998
C        4.39494838       1.03373959       1.20909947
C        5.89310768       1.02248959       1.18316953
O        3.72490846       1.21989950       2.21458906
H        0.04774998      -1.62593935       0.21303992
H        0.10803996      -0.35776986      -1.02234961
H       -0.06479998       0.07632997       0.68924970
H        2.38889899      -1.29891943      -0.54030979
H        2.21131910      -0.87690966       1.14893953
H        2.02865915       1.58555941       0.48212980
H        2.24528919       1.10082955      -1.19720949
H        6.25142766       0.09398996       0.73028975
H        6.27344760       1.07259961       2.20793913
H        6.25982777       1.88863927       0.62660973
