15
Properties=species:S:1:pos:R:3 atomization_energy=-1519.22 smiles=O.C.C.O.C.C.C.H.H.H.H.H.H.H.H pbc="F F F"
O        2.37668918      -0.35270986      -1.48539942
C        2.34269916       0.16221993      -0.15618994
C        3.30634869       1.34252946       0.00779000
O        3.36102862       1.72347926       1.40110943
C        3.15694865       3.14379866       1.49998947
C        2.78814886       3.59422863       0.13895994
C        2.86876895       2.57246897      -0.71101971
H        1.74977937      -1.09583958      -1.51203942
H        2.61964886      -0.64238977       0.53360977
H        1.31476949       0.45713983       0.08362997
H        4.31427808       1.06081953      -0.31868987
H        4.08258827       3.61318855       1.84630932
H        2.35874919       3.33266861       2.22335908
H        2.51066901       4.60492835      -0.11662995
H        2.67202904       2.60989903      -1.77174935
