15
Properties=species:S:1:pos:R:3 atomization_energy=-1499.71 smiles=O.C.C.O.C.C.C.H.H.H.H.H.H.H.H pbc="F F F"
O        0.83968966       0.09366996       0.09434996
C        2.28425899       0.06632997       0.03051999
C        3.04431883       1.02780962       0.95482961
O        3.93712838      -0.03336999       1.38403947
C        3.01460884      -1.02661962       0.84871965
C        3.59484860      -2.13718922       0.04796998
C        4.84068801      -2.08760916      -0.44177983
H        0.55398980      -0.64551975      -0.46997981
H        2.61626888       0.14894994      -1.01196958
H        2.47475899       1.43411940       1.79627935
H        3.58353862       1.83185932       0.44708983
H        2.40479914      -1.43431950       1.66659938
H        2.97397871      -3.01072874      -0.12334995
H        5.49048793      -1.23361951      -0.27243988
H        5.24620806      -2.91547874      -1.01457957
