4
Properties=species:S:1:pos:R:3 atomization_energy=-404.88 smiles=C.C.H.H pbc="F F F"
C        0.99494959       0.00000000       0.00000000
C        2.19520901       0.00000000       0.00000000
H       -0.07070997       0.00000000       0.00000000
H        3.26086876       0.00000000       0.00000000
