15
Properties=species:S:1:pos:R:3 atomization_energy=-1529.25 smiles=O.C.O.C.C.C.C.H.H.H.H.H.H.H.H pbc="F F F"
O        4.08053833       1.78395927       2.70193887
C        3.21794873       2.29053900       2.00295921
O        3.30438858       2.58334899       0.68402973
C        4.55303845       2.25435899       0.05891997
C        5.51986787       3.38217878       0.24111991
C        6.41787747       3.81900859      -0.88864962
C        5.28909781       4.70637814      -0.44173984
H        2.22283903       2.58759900       2.36829917
H        4.33949808       2.08807913      -1.00278958
H        4.96257814       1.31514950       0.44935983
H        5.92926776       3.40008875       1.24566946
H        6.32570742       3.33146877      -1.85247932
H        7.42948710       4.12256839      -0.64262974
H        5.53577786       5.60708768       0.10921996
H        4.42985841       4.80851830      -1.09504953
