19
Properties=species:S:1:pos:R:3 atomization_energy=-1844.17 smiles=C.C.C.O.C.C.C.H.H.H.H.H.H.H.H.H.H.H.H pbc="F F F"
C        1.07195957      -0.85032965      -0.69706970
C        1.97303916      -0.36565985       0.43066984
C        2.60252894       0.97422960       0.13020995
O        1.75003927       2.01204919      -0.20583992
C        0.95791960       2.43822899       0.90060962
C        3.93367851       1.14880958       0.08269997
C        4.63070803       2.42530912      -0.26228990
H        0.65790972      -1.83385930      -0.45225981
H        1.62829940      -0.94144962      -1.63646938
H        0.23243991      -0.16640994      -0.86239967
H        2.74891892      -1.12192962       0.60033978
H        1.39934941      -0.30598988       1.36161945
H        0.40944983       3.33337867       0.59445976
H        1.58718934       2.69871887       1.75800928
H        0.22522992       1.67570929       1.17992960
H        4.58699820       0.30888989       0.30621988
H        3.93963832       3.24714875      -0.47051983
H        5.25793793       2.27709908      -1.14688959
H        5.27634802       2.72941901       0.56768975
