19
Properties=species:S:1:pos:R:3 atomization_energy=-1799.27 smiles=C.C.O.C.C.C.O.H.H.H.H.H.H.H.H.H.H.H.H pbc="F F F"
C        1.01625959      -0.23546992       0.14432995
C        2.53254890      -0.34149986       0.24624990
O        3.00055879      -1.29058947      -0.71239971
C        3.20992863       1.01446962       0.01137000
C        4.74559798       0.98108960       0.06666997
C        5.29951808       0.51521980       1.40528942
O        5.26211805       0.14705995      -0.96559962
H        0.61552974       0.45115983       0.89660966
H        0.55491977      -1.21881952       0.28717988
H        0.70997973       0.11466995      -0.84770970
H        2.78879886      -0.72644970       1.23758956
H        2.64202887      -1.03206960      -1.58250935
H        2.83618895       1.74270930       0.74105968
H        2.92616876       1.37161947      -0.98783959
H        5.11705786       1.99277916      -0.12919995
H        5.08212814      -0.54243978       1.58800942
H        4.89858794       1.10993959       2.23207915
H        6.39175765       0.60658977       1.41143949
H        4.80753824      -0.71772970      -0.88194966
