17
Properties=species:S:1:pos:R:3 atomization_energy=-1705.93 smiles=C.C.C.O.C.C.C.H.H.H.H.H.H.H.H.H.H pbc="F F F"
C        0.53794980       0.77114968       0.33102987
C        2.02697926       0.76963966       0.42301982
C        2.80449892       1.76282931      -0.02144999
O        4.17063826       1.71503928       0.09399996
C        4.92189830       2.75234886      -0.39824985
C        6.25334739       2.77557897      -0.27502990
C        7.12042724       3.87379854      -0.79234967
H        0.19796993      -0.09576996      -0.24365991
H        0.15494994       1.67419934      -0.15508994
H        0.10245996       0.71228969       1.33326954
H        2.49187891      -0.09863996       0.88346964
H        2.40907893       2.65434895      -0.48729982
H        4.36368807       3.53738849      -0.88895967
H        6.75033752       1.95151922       0.23087991
H        6.54190736       4.65471836      -1.29613949
H        7.84494698       3.47163854      -1.50710937
H        7.67091714       4.33533815       0.03307999
