15
Properties=species:S:1:pos:R:3 atomization_energy=-1532.44 smiles=C.C.C.O.C.C.C.H.H.H.H.H.H.H.H pbc="F F F"
C        2.77321892       0.93328961      -4.06011843
C        3.71408850       1.33683952      -3.43212876
C        4.86231785       1.82838926      -2.66438895
O        5.04774801       1.00591963      -1.51378946
C        6.14536778       1.43761948      -0.68753972
C        6.69485745       0.38231986       0.23043991
C        7.47869725       0.80862970      -0.97641964
H        1.93736924       0.56897979      -4.61108826
H        4.68880831       2.86233879      -2.34646898
H        5.76814769       1.79819934      -3.27978881
H        6.12832735       2.45265906      -0.30142987
H        6.22660735      -0.59515979       0.21561992
H        7.04813736       0.69350975       1.20591946
H        8.36674683       1.40865943      -0.81974969
H        7.54831695       0.11244996      -1.80397924
