13
Properties=species:S:1:pos:R:3 atomization_energy=-1428.68 smiles=C.C.O.C.C.C.C.H.H.H.H.H.H pbc="F F F"
C        3.04100875      -1.35924943       0.07561997
C        2.36349907      -0.01517999       0.03906998
O        1.13722960       0.08688997       0.02384999
C        3.17979876       1.22711958       0.02330999
C        4.51803809       1.25053945       0.00000000
C        5.22103802       2.46816911       0.00000000
C        5.81611788       3.49887870       0.00000000
H        3.67130851      -1.44041948       0.96491965
H        3.63046869      -1.50846944      -0.83280966
H        2.28088910      -2.14518913       0.12515995
H        2.59617902       2.14336907       0.03418999
H        5.10897821       0.34101986      -0.01337000
H        6.34695775       4.42270835      -0.00010000
