15
Properties=species:S:1:pos:R:3 atomization_energy=-1515.32 smiles=C.C.O.C.C.C.O.H.H.H.H.H.H.H.H pbc="F F F"
C        2.08745915      -0.01952999       0.42564984
C        2.08601922       1.22399950      -0.07018997
O        3.10822879       2.12571925      -0.13762995
C        4.36875841       1.72887927       0.40999984
C        5.35699814       2.85332880       0.15266994
C        6.71485723       2.54937889       0.71995974
O        6.99491716       1.53072934       1.34336947
H        1.17963954      -0.61346977       0.39853984
H        2.96401895      -0.48264979       0.86168967
H        1.19356949       1.66273934      -0.50369981
H        4.72116828       0.81026967      -0.07522997
H        4.26551809       1.55412941       1.48823941
H        4.99804784       3.78947852       0.59384975
H        5.46303782       3.02527892      -0.92413964
H        7.47971717       3.32493869       0.54250981
