21
Properties=species:S:1:pos:R:3 atomization_energy=-2050.15 smiles=C.C.C.C.C.C.C.H.H.H.H.H.H.H.H.H.H.H.H.H.H pbc="F F F"
C        3.09878882      -0.96798963      -0.92015962
C        2.53044900      -0.07075997       0.17239994
C        3.04592870       1.37860942       0.10361996
C        2.35681911       2.23237917       1.17114948
C        4.54327828       1.45305938       0.29127988
C        5.38545807       1.95930919      -0.62378974
C        6.86775735       2.02868918      -0.44507982
H        2.63273905      -1.95747928      -0.87279969
H        4.17842848      -1.10511956      -0.80626971
H        2.90513897      -0.54947976      -1.91280921
H        2.75924885      -0.51139979       1.15094960
H        1.43719948      -0.06639998       0.07786997
H        2.77513891       1.79191932      -0.87700965
H        2.56586899       1.86039925       2.18076910
H        1.27068949       2.22736913       1.02970961
H        2.69369900       3.27386861       1.11964955
H        4.93843811       1.06460954       1.22855951
H        4.99707787       2.34708896      -1.56175940
H        7.18898715       1.62111932       0.51856978
H        7.20159715       3.06901878      -0.50461981
H        7.36446689       1.46152939      -1.23834946
