16
Properties=species:S:1:pos:R:3 atomization_energy=-1486.89 smiles=C.C.N.C.N.C.H.H.H.H.H.H.H.H.H.H pbc="F F F"
C        0.87413963      -0.02575999       0.06204998
C        2.38195912       0.00046000       0.00516000
N        2.89426879       0.03766998      -1.38153950
C        3.14630886       1.03448958       0.87017967
N        4.15812843      -0.00273000       1.18998954
C        3.17447886      -1.05257959       0.81925966
H        0.51648979      -0.05741997       1.09714955
H        0.47273980      -0.90622967      -0.45141983
H        0.44332984       0.86584966      -0.40675985
H        3.91040852       0.04240999      -1.44650937
H        2.57700891       0.84883963      -1.91038922
H        2.59818909       1.37571948       1.75724926
H        3.54130871       1.91860929       0.35893985
H        4.96336793       0.01677999       0.56617980
H        3.59365861      -1.89976923       0.26631990
H        2.63684902      -1.45114949       1.68889928
