17
Properties=species:S:1:pos:R:3 atomization_energy=-1653.82 smiles=C.C.C.O.C.C.O.H.H.H.H.H.H.H.H.H.H pbc="F F F"
C        0.96091963      -1.08131955       0.66202972
C        2.09272921      -0.79177972      -0.31911987
C        2.71626902      -2.09556920      -0.80504969
O        1.60175933      -0.10676996      -1.47567937
C        1.33417944       1.27184946      -1.24685945
C        0.95020962       1.89792923      -2.56543902
O        1.29453946       3.02605888      -2.90788887
H        0.56395979      -0.15526994       1.08916957
H        1.30391950      -1.71056936       1.48922943
H        0.12614995      -1.58193934       0.15943993
H        2.87210880      -0.19239992       0.16697994
H        1.98326918      -2.70488888      -1.34538951
H        3.11590874      -2.68209883       0.02785999
H        3.53146855      -1.88869920      -1.50696945
H        2.22271917       1.77857932      -0.85732964
H        0.48948980       1.38987942      -0.56314981
H        0.24088991       1.31531945      -3.17878868
