19
Properties=species:S:1:pos:R:3 atomization_energy=-1851.8 smiles=C.C.C.O.C.C.C.H.H.H.H.H.H.H.H.H.H.H.H pbc="F F F"
C        0.99897964      -0.49373982       0.02429999
C        2.49739891      -0.33064986      -0.21019992
C        2.91232889      -1.07089953      -1.47934940
O        2.81265880       1.04991957      -0.41469983
C        3.04294892       1.88351922       0.65346976
C        3.34514866       3.29217878       0.22598991
C        3.01435878       1.54591943       1.95291928
H        0.67854972       0.03986998       0.92484963
H        0.72817968      -1.54848943       0.13641995
H        0.42462982      -0.07185998      -0.80866970
H        3.07536869      -0.75577968       0.61749975
H        2.39197894      -0.67205976      -2.35767905
H        2.70186898      -2.14236908      -1.40256941
H        3.98450837      -0.93904964      -1.66293932
H        4.24305808       3.31127874      -0.39988985
H        3.51424870       3.95911855       1.07763955
H        2.50970889       3.69573846      -0.35500986
H        2.79487878       0.54745978       2.30631904
H        3.21308882       2.28644922       2.72262903
