15
Properties=species:S:1:pos:R:3 atomization_energy=-1464.04 smiles=C.C.C.C.N.C.H.H.H.H.H.H.H.H.H pbc="F F F"
C        0.90743966       0.01106000      -0.36655985
C        1.89945924       0.29648989       0.48508981
C        2.91065897       1.32332945       0.13217995
C        2.49735904       2.79746896       0.34557987
N        3.86532854       3.07184868       0.85265968
C        3.97663841       1.63518931       1.20808951
H        0.16322994      -0.73942969      -0.11675996
H        0.80828969       0.51204979      -1.32489945
H        1.97395916      -0.22057991       1.43744942
H        3.36114873       1.14163959      -0.85445968
H        1.71800935       2.96763889       1.09867956
H        2.23029920       3.34837875      -0.56142979
H        4.51357839       3.35082864       0.11530995
H        4.96517816       1.19943947       1.03372962
H        3.68356853       1.42760938       2.24470908
