17
Properties=species:S:1:pos:R:3 atomization_energy=-1750.8 smiles=C.C.C.C.C.C.C.H.H.H.H.H.H.H.H.H.H pbc="F F F"
C        0.98508962      -0.00649000      -0.03281999
C        2.50294893      -0.10757996      -0.01421999
C        3.15503876       1.27862947      -0.03011999
C        4.66433824       1.21365947       0.02840999
C        5.35477813       1.71728932       1.06360955
C        5.38664807       0.63291978      -1.05714956
C        5.99083760       0.13583995      -1.96845922
H        0.53842980      -1.00559961      -0.01524999
H        0.63759977       0.50499979      -0.93619962
H        0.61747976       0.54527977       0.83818968
H        2.82693898      -0.69137976      -0.88404963
H        2.81539887      -0.66017976       0.87997965
H        2.76867898       1.86358922       0.81481971
H        2.85625887       1.81902928      -0.93752966
H        4.85546806       2.18198912       1.90731923
H        6.44003770       1.68085938       1.09411956
H        6.52799735      -0.30639989      -2.77378894
