14
Properties=species:S:1:pos:R:3 atomization_energy=-1496.1 smiles=C.C.C.C.C.O.N.H.H.H.H.H.H.H pbc="F F F"
C        1.09800962      -0.10068996       0.26180989
C        2.39343893       0.01327999      -0.03356998
C        3.20042886       1.27264948      -0.10562996
C        4.53047802       0.82254969      -0.71880974
C        4.46926801      -0.68447976      -0.69564971
O        5.37042771      -1.44932943      -0.99450959
N        3.19373880      -1.04464958      -0.32678986
H        0.59844975      -1.06381962       0.28381989
H        0.49826980       0.77515966       0.48528981
H        3.36774871       1.67583937       0.89889963
H        2.72264896       2.04271918      -0.71914970
H        4.61886815       1.15837950      -1.75659925
H        5.38371800       1.18173957      -0.13765995
H        2.91184896      -2.01517924      -0.30242989
