21
Properties=species:S:1:pos:R:3 atomization_energy=-2046.71 smiles=C.C.C.C.C.C.C.H.H.H.H.H.H.H.H.H.H.H.H.H.H pbc="F F F"
C        2.96075883      -0.94737960      -0.94094963
C        2.58760910      -0.15487993       0.30596988
C        3.12349887       1.29248952       0.30001988
C        2.56518896       2.05237917       1.52203943
C        2.95994885       3.52374872       1.56005944
C        4.63629818       1.30962950       0.29294987
C        5.37466788       1.85973927      -0.67830976
H        2.49829897      -1.93896927      -0.90594964
H        4.04250848      -1.08970956      -1.02030958
H        2.60962904      -0.44206982      -1.84592931
H        2.95140895      -0.69080974       1.19199948
H        1.49291940      -0.13328995       0.37995984
H        2.74579884       1.78845935      -0.60467975
H        2.89292891       1.57037942       2.45207895
H        1.46919938       1.99438916       1.50812942
H        4.03693852       3.64692852       1.70737939
H        2.45372895       4.02529848       2.39084900
H        2.67539893       4.03135847       0.63346973
H        5.14047773       0.84309967       1.13709952
H        4.91925791       2.33835906      -1.54075938
H        6.45899737       1.84316931      -0.62939976
