15
Properties=species:S:1:pos:R:3 atomization_energy=-1545.39 smiles=O.C.C.C.C.C.O.H.H.H.H.H.H.H.H pbc="F F F"
O        0.99483964       0.04806998       0.02081999
C        2.40132908       0.03572999      -0.02235999
C        2.98899874       1.13016949       0.86005967
C        4.39117804       0.63159977       1.18596953
C        4.21879845      -0.85965966       1.45799940
C        3.03952883      -1.20521950       0.58489975
O        2.61792897      -2.34149907       0.40852982
H        0.70575974      -0.82895965      -0.29745988
H        2.74558890       0.13389994      -1.05728960
H        2.39817898       1.25237945       1.77675926
H        3.00196881       2.09940918       0.35159986
H        5.05069777       0.78136967       0.32227988
H        4.83052815       1.15617955       2.03948921
H        5.10460783      -1.43088943       1.17298948
H        3.95318852      -1.04397957       2.50270897
