11
Properties=species:S:1:pos:R:3 atomization_energy=-1240.22 smiles=O.C.C.C.C.O.C.H.H.H.H pbc="F F F"
O        1.02775959      -0.06719998       0.01447000
C        2.22984905       0.12979995       0.03351999
C        2.88778892       1.45833942       0.03073999
C        4.21101832       1.22979946       0.03244999
C        4.59793827      -0.18699992       0.06116998
O        4.15065841      -1.07184956       1.09593962
C        3.26663882      -0.92913964      -0.02271999
H        2.35385901       2.39100898       0.03019999
H        4.95245814       2.01882921       0.03898998
H        5.40637785      -0.50302980      -0.58562975
H        3.15269864      -1.74164926      -0.72479971
