19
Properties=species:S:1:pos:R:3 atomization_energy=-1783.54 smiles=C.O.C.O.C.C.C.H.H.H.H.H.H.H.H.H.H.H.H pbc="F F F"
C        4.12241826       6.40346733       1.41930945
O        5.26908794       5.78106756       0.85524967
C        5.49741796       6.21314749      -0.48187981
O        4.54966832       5.68600781      -1.40216947
C        4.62121836       4.26816807      -1.57247944
C        3.34813878       3.85243845      -2.30615907
C        5.84532775       3.86518849      -2.39059894
H        3.97159835       5.99525743       2.42101899
H        3.23043862       6.19885747       0.82194971
H        4.27946848       7.48242720       1.50520944
H        6.51410752       5.92959781      -0.76913967
H        5.45167787       7.30690710      -0.53399981
H        4.63624822       3.76782850      -0.59633976
H        3.26463884       4.37002814      -3.26886867
H        2.46429910       4.13011840      -1.72233935
H        3.32168867       2.77351894      -2.48473894
H        5.92252749       4.46701822      -3.30183878
H        5.80868774       2.80628895      -2.66738892
H        6.76756721       4.02426846      -1.82426932
