17
Properties=species:S:1:pos:R:3 atomization_energy=-1708.51 smiles=C.C.O.C.C.C.C.H.H.H.H.H.H.H.H.H.H pbc="F F F"
C        1.01343960      -0.06791997      -0.46151983
C        2.51599900       0.16324994      -0.30637989
O        3.14113884      -0.44049981      -1.44351937
C        2.97768874       1.61484939      -0.17388994
C        2.15068920       2.67042901      -0.30666988
C        4.38189831       1.88989929       0.13455995
C        5.35839807       0.99012962       0.29922989
H        0.45013982       0.34474985       0.38074986
H        0.80320969      -1.14179957      -0.52016978
H        0.63750975       0.36683984      -1.39433951
H        2.83754876      -0.39503985       0.58134977
H        3.38852869       0.27992989      -2.04804917
H        1.09440961       2.56020895      -0.52744979
H        2.49958914       3.69367843      -0.19820992
H        4.65786796       2.93966873       0.23976991
H        5.19950811      -0.08006997       0.21184991
H        6.37018736       1.31418950       0.52511979
