19
Properties=species:S:1:pos:R:3 atomization_energy=-1911.19 smiles=C.C.C.C.C.C.C.H.H.H.H.H.H.H.H.H.H.H.H pbc="F F F"
C        2.19532912      -0.46419981       1.40609940
C        2.23643918       0.17751993       0.02410999
C        2.93601876       1.52039940       0.02843999
C        2.21211924       2.65318898       0.07109997
C        4.38901809       1.60750933      -0.04784998
C        5.25280804       0.58241978      -0.11775995
C        6.73641742       0.75648967      -0.20497992
H        1.67893938      -1.42805941       1.35617945
H        1.65358930       0.17011993       2.11631916
H        3.19837867      -0.63939977       1.80321934
H        1.20306951       0.29518988      -0.32868988
H        2.70621892      -0.50346981      -0.69603975
H        1.12777954       2.62838886       0.11980995
H        2.67271891       3.63618854       0.06479998
H        4.79951815       2.61750909      -0.05332998
H        4.90632795      -0.44597982      -0.11593995
H        7.03311708       1.80971927      -0.19526992
H        7.10892699       0.30585989      -1.13014956
H        7.21987704       0.25778989       0.63993976
