12
Properties=species:S:1:pos:R:3 atomization_energy=-1267.44 smiles=C.C.N.C.C.N.H.H.H.H.H.H pbc="F F F"
C        0.98983963       0.01250999      -0.00406000
C        2.47041914       0.04820998      -0.00543000
N        3.23637875       1.11902957      -0.00896999
C        4.52546824       0.65433974      -0.00928000
C        4.54683817      -0.71903974      -0.00597000
N        3.23244869      -1.09363962      -0.00365000
H        0.57986978       1.02724957       0.00782000
H        0.61768976      -0.51566980       0.87919963
H        0.61612978      -0.49570980      -0.89825966
H        5.36785797       1.33404949      -0.01188999
H        5.35402769      -1.43634938      -0.00515000
H        2.87717889      -2.03973914      -0.00107000
