19
Properties=species:S:1:pos:R:3 atomization_energy=-1842.09 smiles=C.O.C.C.C.C.C.H.H.H.H.H.H.H.H.H.H.H.H pbc="F F F"
C        0.93326961       0.59195979       1.17218959
O        2.34866906       0.68903970       1.09747960
C        2.76153901       1.48609938      -0.01130000
C        4.25704834       1.53765937       0.01151000
C        5.06415812       2.61805892       0.02765999
C        4.60482843       4.04926843       0.02550999
C        6.56148726       2.45118898       0.06017998
H        0.67591974      -0.02807999       2.03495923
H        0.53337977       0.11917996       0.26999990
H        0.48735981       1.58161938       1.30869954
H        2.29834916       2.47333912       0.05933998
H        2.43421894       1.00984963      -0.94218965
H        4.71624833       0.55041976       0.02168999
H        3.52048861       4.16143825      -0.02267999
H        5.02379824       4.57647801      -0.83849967
H        4.94703807       4.55413811       0.93539960
H        6.86393705       1.39875946       0.06370997
H        6.97521716       2.91869874       0.95962965
H        7.01418720       2.92359876      -0.81774965
