17
Properties=species:S:1:pos:R:3 atomization_energy=-1708.45 smiles=C.C.O.C.C.C.C.H.H.H.H.H.H.H.H.H.H pbc="F F F"
C        1.14020950       3.05376889       0.43090984
C        2.64635888       3.23967873       0.39490984
O        3.23769869       1.99373916       0.02793999
C        4.60194833       1.93966924      -0.04308998
C        5.50320795       2.90489875       0.19334993
C        6.92523740       2.67625887       0.07453997
C        7.84121702       3.62239864       0.31650988
H        0.63816972       3.98734836       0.69859971
H        0.86533964       2.28338920       1.15841949
H        0.76961967       2.71890891      -0.54335978
H        2.99556893       3.54742850       1.38767947
H        2.90015896       4.00855832      -0.34370986
H        4.88776798       0.93459965      -0.33688986
H        5.19082791       3.90181841       0.48724980
H        7.25815720       1.68464939      -0.22553990
H        7.56930688       4.62818825       0.61989974
H        8.89895634       3.40176877       0.21426991
