15
Properties=species:S:1:pos:R:3 atomization_energy=-1538.31 smiles=O.C.C.C.O.C.C.H.H.H.H.H.H.H.H pbc="F F F"
O        1.09422958       0.03866998       0.34965987
C        2.29542918       0.01701999       0.08287997
C        3.06503876      -1.27539951       0.00180000
C        3.99688850      -1.20648948      -1.19110951
O        4.81686794      -0.03650999      -1.11984953
C        4.03363853       1.15616958      -1.21901949
C        3.10456872       1.28273944      -0.02854999
H        2.37408916      -2.11785913      -0.09615996
H        3.62900846      -1.38075941       0.93447960
H        4.65997795      -2.07742923      -1.19731951
H        3.44314857      -1.20461958      -2.13754905
H        4.72322832       2.00571922      -1.24610952
H        3.47952868       1.14884957      -2.16563907
H        3.67179853       1.39322950       0.90179961
H        2.44003896       2.14322928      -0.14745994
