19
Properties=species:S:1:pos:R:3 atomization_energy=-1839.56 smiles=C.O.C.C.C.C.C.H.H.H.H.H.H.H.H.H.H.H.H pbc="F F F"
C        1.36951944       2.08494921       2.83146883
O        2.63607890       2.55125901       2.38753917
C        2.88669885       2.31067907       0.99488960
C        2.01850925       3.22249876       0.12840995
C        4.37619815       2.59966901       0.72305970
C        5.28240801       1.58073938       1.36517947
C        6.13749757       0.80123968       0.69265971
H        1.35368944       2.13033919       3.92414847
H        1.20007951       1.04834957       2.52481899
H        0.56917977       2.72847882       2.45588915
H        2.67132907       1.26072947       0.75854971
H        2.12685929       4.26954832       0.43123983
H        0.95857963       2.96895884       0.22970991
H        2.27977909       3.13107864      -0.93066965
H        4.64277805       3.58461859       1.12711957
H        4.55875830       2.62802903      -0.35821986
H        5.22511771       1.49976943       2.44966894
H        6.23259769       0.85290968      -0.38715986
H        6.76849730       0.09008996       1.21795958
