17
Properties=species:S:1:pos:R:3 atomization_energy=-1620.26 smiles=C.C.C.C.C.N.H.H.H.H.H.H.H.H.H.H.H pbc="F F F"
C        3.10583871      -1.16693959      -0.46365982
C        2.46834902       0.05398998       0.17664993
C        3.40521864       1.22484948       0.17632994
C        3.50073863       2.12362920      -1.02933956
C        2.85416881       2.62511889       0.23038990
N        3.53709856       3.63610855       1.03027963
H        2.41278896      -2.01405927      -0.44350981
H        4.01825844      -1.45866946       0.06737998
H        3.37474863      -0.96886964      -1.50666943
H        2.19536924      -0.17965994       1.21157951
H        1.54008945       0.29602989      -0.35374988
H        4.31845819       1.01314961       0.72141973
H        2.85655889       1.92784928      -1.87913926
H        4.47638829       2.50837910      -1.30271954
H        1.77254936       2.74067904       0.19994992
H        4.54807812       3.50833860       1.01023960
H        3.26537868       3.56109854       2.01027922
