11
Properties=species:S:1:pos:R:3 atomization_energy=-1238.9 smiles=O.C.C.C.O.C.C.H.H.H.H pbc="F F F"
O        1.23780947      -0.10142996       0.76011971
C        2.31117919      -0.00116000       0.21303992
C        3.32907869       1.10918954      -0.07304997
C        4.10868841      -0.03089999      -0.72998972
O        3.04780882      -0.96744965      -0.38854986
C        4.26698817       0.03911998      -2.16421920
C        4.38743850       0.09207997      -3.35968874
H        3.78233855       1.53406945       0.82501969
H        2.95017883       1.89826925      -0.72625970
H        5.03280798      -0.29103988      -0.19990993
H        4.48434833       0.12895995      -4.41984843
