13
Properties=species:S:1:pos:R:3 atomization_energy=-1423.73 smiles=O.C.C.C.C.C.C.H.H.H.H.H.H pbc="F F F"
O       -0.01957999       0.02486999      -1.23315950
C        0.02463999      -1.07952952      -0.28028987
C        1.26150955      -0.65334972       0.47041981
C        1.22704956       0.69394975       0.49928981
C       -0.03084999       1.08798955      -0.23412991
C       -1.24161954       0.62990978       0.53972981
C       -1.20719954      -0.71730969       0.51090979
H        0.04097999      -2.03449923      -0.80389969
H        1.98669924      -1.30370943       0.92875963
H        1.91854924       1.36036941       0.98578959
H       -0.06390998       2.06406918      -0.71615970
H       -1.95035925       1.26012956       1.04956959
H       -1.88223927      -1.40405943       0.99267962
