15
Properties=species:S:1:pos:R:3 atomization_energy=-1533.34 smiles=C.C.C.C.O.C.O.H.H.H.H.H.H.H.H pbc="F F F"
C        4.16715836      -1.13580960      -1.44285940
C        4.05779849      -0.47510982      -0.07748997
C        3.14514889       0.71442971      -0.11531996
C        3.53489849       1.96062926       0.17425993
O        2.63689898       3.02804876       0.12983995
C        3.15577884       4.25609856       0.42827982
O        4.30650829       4.53876811       0.72781974
H        4.82252823      -2.01085920      -1.38751949
H        4.58510824      -0.44586983      -2.18361918
H        3.18785873      -1.46979942      -1.80197926
H        5.05912815      -0.19096992       0.26707989
H        3.66365858      -1.19782947       0.64611973
H        2.10731913       0.53326981      -0.38530986
H        4.54769812       2.22127912       0.45713983
H        2.34298908       4.99561789       0.35584987
