19
Properties=species:S:1:pos:R:3 atomization_energy=-1835.68 smiles=C.O.C.C.C.C.C.H.H.H.H.H.H.H.H.H.H.H.H pbc="F F F"
C        2.27031919      -0.77701973      -0.88550967
O        1.95292924       0.48408982      -0.31396988
C        3.11413889       1.31387952      -0.11483996
C        3.37565879       2.39132894      -1.13990961
C        2.53409897       2.53016891      -2.36263913
C        2.80818900       2.75607882       0.20757991
C        3.64009867       3.49602862       1.19749955
H        1.34207943      -1.33143950      -1.04016962
H        2.91353882      -1.34767942      -0.20768991
H        2.76782888      -0.64490974      -1.85162922
H        3.97333843       0.87158963       0.38243984
H        4.41224821       2.63244887      -1.34692949
H        1.47144941       2.35761900      -2.16227902
H        2.85854877       1.81609934      -3.12630883
H        2.63815887       3.53880861      -2.77538897
H        1.76382930       3.04171881       0.27083988
H        4.69533814       3.21057864       1.14474957
H        3.28334870       3.29623879       2.21232918
H        3.56919863       4.57270818       1.01666957
