15
Properties=species:S:1:pos:R:3 atomization_energy=-1586.98 smiles=C.C.C.C.C.C.C.H.H.H.H.H.H.H.H pbc="F F F"
C        1.00173963      -0.11887995      -0.19304992
C        2.50000902      -0.01348000       0.06979998
C        3.02738892       1.43281939       0.00000000
C        2.47898907       2.24674918       1.10662951
C        2.03343919       2.91137886       2.00294925
C        4.47138809       1.43281939       0.00000000
C        5.66154783       1.43281939       0.00000000
H        0.69358974      -1.16939956      -0.18894992
H        0.74447972       0.30457988      -1.16912957
H        0.42033984       0.40143985       0.57396977
H        3.01709885      -0.63073976      -0.67706974
H        2.72319905      -0.45843981       1.04877961
H        2.68506902       1.87487928      -0.94509965
H        1.64283936       3.50177874       2.79967888
H        6.72718714       1.43589947       0.00450000
