16
Properties=species:S:1:pos:R:3 atomization_energy=-1615.12 smiles=C.C.C.C.C.N.O.H.H.H.H.H.H.H.H.H pbc="F F F"
C        0.97569962       0.03793999      -0.14737994
C        2.45759895       0.02008999       0.01579000
C        3.31833872      -0.72682972      -0.96756963
C        3.33292876       0.78686967      -0.95433965
C        4.51618800       1.56391936      -0.50243979
N        5.25410804       1.05381961       0.52217979
O        4.80853798       2.62404901      -1.03884962
H        0.55462978       0.92255966       0.34059985
H        0.53561977      -0.84989968       0.31744988
H        0.67589974       0.05459998      -1.20038950
H        2.73560895      -0.00455000       1.06245956
H        2.84280885      -1.21224957      -1.81339927
H        4.18051829      -1.26642951      -0.59504978
H        2.82649892       1.26716947      -1.78868935
H        5.03148778       0.18536992       0.98307961
H        6.05695747       1.58410939       0.83033965
