17
Properties=species:S:1:pos:R:3 atomization_energy=-1631.0 smiles=C.O.C.C.C.C.O.H.H.H.H.H.H.H.H.H.H pbc="F F F"
C        2.29574914      -0.83760970      -0.95361962
O        1.88529929       0.43020984      -0.46040982
C        2.99696887       1.26638951      -0.07850997
C        3.40363854       2.34777908      -1.04872958
C        2.74542892       2.49407898      -2.37840907
C        2.64862885       2.71009901       0.20042992
O        3.40626859       3.37284858       1.22637949
H        1.40627944      -1.39592944      -1.25703951
H        2.81362902      -1.39814945      -0.16967993
H        2.94923890      -0.71581974      -1.82267926
H        3.76580859       0.82716968       0.54910978
H        4.45683817       2.59329891      -1.10537959
H        1.66484933       2.32183918      -2.33385898
H        3.17554875       1.78356930      -3.09169882
H        2.90803876       3.50479864      -2.76696893
H        1.60337942       2.98715874       0.10826996
H        4.34615811       3.12914881       1.21426948
