13
Properties=species:S:1:pos:R:3 atomization_energy=-1490.85 smiles=O.C.C.C.C.C.C.H.H.H.H.H.H pbc="F F F"
O        0.99135961      -0.03553999       0.13600996
C        2.34847905       0.03015999       0.01496999
C        3.01257884       1.25190948      -0.05007998
C        4.40278831       1.27036953      -0.17399994
C        5.11648809       0.07207997      -0.23202992
C        4.44180831      -1.14706951      -0.16616994
C        3.05190870      -1.16776950      -0.04214999
H        0.64140972       0.86966964       0.16201993
H        2.47012896       2.19078918      -0.00611000
H        4.93095800       2.21885901      -0.22552991
H        6.19895739       0.08847996      -0.32862986
H        4.99561789      -2.08052912      -0.21116991
H        2.52069892      -2.11362918       0.00972000
