17
Properties=species:S:1:pos:R:3 atomization_energy=-1624.79 smiles=C.C.C.C.C.N.H.H.H.H.H.H.H.H.H.H.H pbc="F F F"
C        0.67384974       1.06811960       0.83495965
C        2.16187908       1.04949957       0.97000961
C        3.00743885       1.44083948       0.00407000
C        4.50623807       1.41124948       0.13446995
C        5.11020807       2.81429896       0.00770000
N        6.56737717       2.77408896       0.12112995
H        0.27617991       0.05696998       0.96258962
H        0.35120985       1.44147940      -0.14192994
H        0.23807990       1.70961934       1.60676937
H        2.55286889       0.68800975       1.91885922
H        2.61379906       1.79255936      -0.94785966
H        4.90755831       0.76046970      -0.65230973
H        4.79985829       0.96690959       1.09402960
H        4.70792796       3.47193856       0.78692972
H        4.84548786       3.25218882      -0.96135963
H        6.82690744       2.41465898       1.03928962
H        6.93261708       3.72474848       0.07525998
