7
Properties=species:S:1:pos:R:3 atomization_energy=-884.17 smiles=C.C.C.C.C.N.H pbc="F F F"
C        0.85951968       0.00000000       0.00000000
C        2.05833924       0.00000000       0.00000000
C        3.59086859       0.00000000       0.00000000
C        4.79047812       0.00000000       0.00000000
C        6.32207738       0.00000000       0.00000000
N        7.48202701       0.00000000       0.00000000
H       -0.20631992       0.00000000       0.00000000
