17
Properties=species:S:1:pos:R:3 atomization_energy=-1649.04 smiles=C.C.O.C.C.C.O.H.H.H.H.H.H.H.H.H.H pbc="F F F"
C        4.64189842       1.04167957      -1.92684929
C        5.86081786       1.59678941      -1.21296948
O        5.81862757       3.02000873      -1.31020949
C        6.79075746       3.74556859      -0.64840976
C        7.82516673       3.23430862       0.03793999
C        6.57157748       5.23850792      -0.73974970
O        5.18667807       5.53416799      -0.58220977
H        4.63100831      -0.05158998      -1.88884922
H        4.62836842       1.36026949      -2.97468877
H        3.72218858       1.41964946      -1.46740946
H        6.76921745       1.21489955      -1.69220936
H        5.83148789       1.28455951      -0.16294994
H        8.01240662       2.17141922       0.12874995
H        8.53650671       3.88628843       0.53784981
H        6.88871750       5.60369786      -1.72206936
H        7.12230710       5.78709777       0.03107999
H        4.71803837       4.78357788      -0.99417960
