15
Properties=species:S:1:pos:R:3 atomization_energy=-1492.36 smiles=C.C.O.C.O.C.C.H.H.H.H.H.H.H.H pbc="F F F"
C        0.91627964       0.00043000       0.12208995
C        2.43617906       0.00040000      -0.02654999
O        2.75861904      -0.68424976      -1.24507951
C        3.02738892       1.43281939       0.00000000
O        2.57021893       2.14116924       1.15145957
C        4.47134822       1.42220949       0.00013000
C        5.66147769       1.41346949       0.00023000
H        0.60422978       0.41902983       1.08246955
H        0.52675979      -1.02050961       0.04726998
H        0.44681983       0.57625980      -0.68190970
H        2.85753895      -0.59046978       0.79637971
H        2.38948894      -0.17073993      -1.98413921
H        2.67166896       1.98067925      -0.88026964
H        3.07152872       1.79765935       1.91144926
H        6.72723710       1.40351944      -0.00507000
