17
Properties=species:S:1:pos:R:3 atomization_energy=-1656.28 smiles=C.C.C.O.C.O.C.H.H.H.H.H.H.H.H.H.H pbc="F F F"
C        0.97910962      -0.16701993       0.19907992
C        2.47542893       0.02677999       0.03317999
C        2.90028891       1.47157936       0.23013991
O        2.11704915       2.35437907       0.58153977
C        4.37793822       1.77523934      -0.00028000
O        4.82605835       1.45729943      -1.30894947
C        4.37990842       2.40365911      -2.27445919
H        0.71280975      -1.21838955       0.05506998
H        0.42363983       0.43022984      -0.53140981
H        0.65052973       0.13543995       1.19870948
H        2.77056894      -0.28829988      -0.97280960
H        3.01063892      -0.58767975       0.76451968
H        4.95116822       1.17086952       0.71065970
H        4.58025843       2.82691880       0.23308991
H        4.77269836       2.10674912      -3.25084868
H        4.75797836       3.40274857      -2.03655914
H        3.28727876       2.41626911      -2.33069903
