17
Properties=species:S:1:pos:R:3 atomization_energy=-1711.81 smiles=C.C.O.C.C.C.C.H.H.H.H.H.H.H.H.H.H pbc="F F F"
C        4.19025827      -0.96900962      -0.47359981
C        2.93413889      -0.21867992      -0.04498998
O        2.50964909      -0.73350974       1.21378955
C        3.05836889       1.27293953       0.10563995
C        4.16028838       2.01234922      -0.08533997
C        4.18698831       3.44485862       0.08647997
C        5.29669803       4.17162840      -0.09172996
H        4.53270812      -0.64679976      -1.46201941
H        3.99464831      -2.04612918      -0.51005978
H        5.00453780      -0.82852968       0.24645990
H        2.13699922      -0.42922982      -0.76634971
H        3.17502869      -0.46187981       1.86942930
H        2.12975908       1.76514924       0.39783984
H        5.09437782       1.54147941      -0.38135983
H        3.26571882       3.94618834       0.37449986
H        6.24270759       3.72190850      -0.37771986
H        5.28086777       5.24673795       0.04820998
