21
Properties=species:S:1:pos:R:3 atomization_energy=-2069.4 smiles=C.C.C.C.C.C.C.H.H.H.H.H.H.H.H.H.H.H.H.H.H pbc="F F F"
C        0.97021961       0.03519999       0.15114994
C        2.49393894       0.01050999       0.00183000
C        2.98859879      -1.33916942      -0.53802979
C        2.68061890      -1.53952940      -2.02117917
C        3.19916872      -0.38026986      -2.86611896
C        2.68973891       0.96582962      -2.36039918
C        2.99621894       1.16522953      -0.87676968
H        0.64229975       0.98513958       0.58690976
H        0.63605973      -0.76749971       0.81730971
H        0.45419983      -0.08860997      -0.80538971
H        2.91371873       0.14487995       1.00715959
H        2.55556908      -2.16274912       0.04220998
H        4.07567843      -1.39733947      -0.39583983
H        3.13680883      -2.47492906      -2.36534916
H        1.59935941      -1.64647937      -2.16708922
H        4.29585840      -0.38195985      -2.84989886
H        2.89647895      -0.52043981      -3.90971840
H        3.15298882       1.77277936      -2.94016885
H        1.60921938       1.03813962      -2.53170889
H        4.08350827       1.25314957      -0.75347968
H        2.56775895       2.11571912      -0.53720977
