10
Properties=species:S:1:pos:R:3 atomization_energy=-980.82 smiles=C.C.C.O.H.H.H.H.H.H pbc="F F F"
C        0.99837959      -0.00491000      -0.00737000
C        2.50168904       0.03442999       0.00508000
C        3.22548864      -1.28472945      -0.00532000
O        3.11878885       1.09884951       0.01820000
H        0.60231975       1.01430958       0.00058000
H        0.63799977      -0.53032978       0.88066965
H        0.65215972      -0.51121978      -0.91265963
H        2.51222892      -2.11379912       0.01769999
H        3.86714860      -1.35212953       0.87739969
H        3.82385840      -1.36179950      -0.91703966
