15
Properties=species:S:1:pos:R:3 atomization_energy=-1517.49 smiles=C.C.O.C.C.C.O.H.H.H.H.H.H.H.H pbc="F F F"
C        3.69424845      -1.14360954      -0.78126968
C        3.61399853       0.01477999       0.19592992
O        4.91750824       0.58335978       0.31616986
C        5.07004804       1.65763935       1.16297949
C        4.11625834       2.24669922       1.90318920
C        6.45688738       2.21476922       1.25494945
O        6.77454719       3.16893868       1.95508920
H        2.71698892      -1.61877933      -0.90375966
H        4.41129844      -1.89394921      -0.43200982
H        4.04485844      -0.79882966      -1.75969927
H        3.27265869      -0.35693985       1.16886954
H        2.90941875       0.76187972      -0.18712993
H        3.08431889       1.92168925       1.90889921
H        4.35089841       3.09530867       2.54188895
H        7.19643698       1.68858929       0.62785978
