13
Properties=species:S:1:pos:R:3 atomization_energy=-1438.75 smiles=O.C.C.C.C.C.C.H.H.H.H.H.H pbc="F F F"
O       -1.35026947       0.83641970       0.60641976
C       -1.11770950      -0.38008985      -0.11758996
C       -0.17748993      -1.41732940       0.34990987
C        1.15569949      -1.24142954       0.39459985
C        1.74842927       0.02074999      -0.00535000
C        0.97534963       1.03806959      -0.42814984
C       -0.49351982       0.94927965      -0.53866976
H       -1.93746928      -0.75618972      -0.71944972
H       -0.60276979      -2.36187911       0.67476974
H        1.81457930      -2.02692917       0.75063969
H        2.82542878       0.12650995       0.06796998
H        1.43766945       1.98151926      -0.70164970
H       -0.90749965       1.43714940      -1.41404948
