16
Properties=species:S:1:pos:R:3 atomization_energy=-1574.68 smiles=C.C.N.C.C.O.C.H.H.H.H.H.H.H.H.H pbc="F F F"
C       -1.58532941       0.85137967       0.55060976
C       -1.18049949      -0.29425988      -0.32711987
N       -0.35396984      -1.40054950       0.18349992
C        0.98077961      -1.27286951      -0.41920984
C        1.67531932       0.04064999      -0.02187999
O        0.82743967       1.19604953       0.07273997
C       -0.50359979       1.05124961      -0.47437980
H       -2.54632896       1.31578954       0.36276987
H       -1.30148955       0.83934965       1.59530936
H       -1.86760923      -0.57789977      -1.12016960
H       -0.25721989      -1.31580947       1.19656958
H        1.60468940      -2.12306927      -0.12410995
H        0.88467963      -1.32363944      -1.51109936
H        2.14402917      -0.07890997       0.96020963
H        2.47148903       0.26954990      -0.73926971
H       -0.74557969       1.63950935      -1.35253944
