17
Properties=species:S:1:pos:R:3 atomization_energy=-1731.4 smiles=O.C.C.C.C.C.C.H.H.H.H.H.H.H.H.H.H pbc="F F F"
O        1.19095950      -0.01484999       0.80145971
C        2.46424914       0.02935999       0.15605994
C        2.51217896       1.21298953      -0.80853968
C        3.84257860       1.27053948      -1.55817945
C        4.29409813      -0.07070997      -2.05681920
C        3.76970861      -1.22672947      -1.62657939
C        2.69961894      -1.30116946      -0.57577975
H        1.04682959       0.85027969       1.22096951
H        3.22677881       0.15631994       0.93654960
H        2.34648917       2.15071923      -0.26691988
H        1.68278933       1.13429953      -1.52213935
H        4.62287819       1.67669931      -0.90252967
H        3.74464859       1.95943926      -2.40508907
H        5.08000806      -0.08443996      -2.80859879
H        4.12068827      -2.16723910      -2.04338924
H        1.76906933      -1.64680929      -1.04171956
H        2.96675876      -2.06644917       0.16345993
