15
Properties=species:S:1:pos:R:3 atomization_energy=-1512.97 smiles=C.C.O.C.C.C.O.H.H.H.H.H.H.H.H pbc="F F F"
C        1.45579945      -0.12734995       1.33788947
C        2.70223889       0.45431981       0.68820972
O        2.39011901       1.02357960      -0.58483976
C        2.40472899       0.22551991      -1.69090935
C        2.67189884      -1.08073957      -1.79614927
C        3.19047868       1.61127941       1.53360945
O        4.07959840       1.50986937       2.37722917
H        1.67523933      -0.50794979       2.34088918
H        1.04057960      -0.94450964       0.73992968
H        0.66906977       0.63085975       1.42812944
H        3.52069854      -0.27140990       0.62676978
H        2.15323926       0.82237968      -2.56270905
H        2.92492880      -1.71171936      -0.95372964
H        2.64114899      -1.55978932      -2.77050888
H        2.63825905       2.55934900       1.41444942
