17
Properties=species:S:1:pos:R:3 atomization_energy=-1648.69 smiles=O.C.C.C.O.C.C.H.H.H.H.H.H.H.H.H.H pbc="F F F"
O        0.82274966       0.17770993       0.06409997
C        2.21908914      -0.08721996       0.20006992
C        2.99838874       1.22262947       0.41377983
C        2.47092910       1.99430917       1.63716935
O        1.15048961       2.48570890       1.41891947
C        4.47497826       0.93371965       0.55860980
C        5.41360764       1.39946939      -0.27585989
H        0.39967984      -0.66862976      -0.17194994
H        2.56061899      -0.59176979      -0.71084970
H        2.35283909      -0.77061972       1.04591956
H        2.81715888       1.85345925      -0.46738981
H        3.10504865       2.86022879       1.85377921
H        2.45516900       1.35983951       2.53118909
H        0.66433975       1.77042927       0.95447963
H        4.78152794       0.31421988       1.39930942
H        5.16429780       2.02810920      -1.12487950
H        6.46294736       1.16416949      -0.11999995
