13
Properties=species:S:1:pos:R:3 atomization_energy=-1363.72 smiles=O.C.C.C.C.C.O.H.H.H.H.H.H pbc="F F F"
O        1.17342954      -0.01609999       0.42992982
C        2.53383907       0.05957997      -0.00011000
C        2.61807885      -0.37816987      -1.46017942
C        4.00618842      -0.58029975      -1.90516925
C        5.13731804      -0.74186973      -2.27655909
C        3.05471892       1.47974947       0.17092993
O        2.41674904       2.34943918       0.76297970
H        1.03293958       0.74124969       1.03541961
H        3.12826868      -0.59406979       0.64760975
H        2.12635917       0.36300987      -2.10247917
H        2.05420921      -1.31009947      -1.59343934
H        6.13700754      -0.88945967      -2.61600898
H        4.07429843       1.67624928      -0.20097992
