15
Properties=species:S:1:pos:R:3 atomization_energy=-1580.85 smiles=C.O.C.C.C.C.C.H.H.H.H.H.H.H.H pbc="F F F"
C        3.07329882      -1.13521953       0.53414982
O        2.34372917       0.03833998       0.19834992
C        3.08408876       1.18586947       0.12127995
C        2.56255891       2.41375917      -0.02665999
C        3.63269855       3.37920859      -0.08484997
C        4.81121824       2.74767896       0.02256999
C        4.58635829       1.26668953       0.16713994
H        2.36619902      -1.96821926       0.58795978
H        3.55030861      -1.03282962       1.51447946
H        3.81467859      -1.37116944      -0.23587991
H        1.51331937       2.65303884      -0.09668996
H        3.48290866       4.44198847      -0.19989993
H        5.78139761       3.22047885       0.00916000
H        5.04726808       0.72425972      -0.66357973
H        4.98694779       0.91050965       1.12060955
