13
Properties=species:S:1:pos:R:3 atomization_energy=-1423.51 smiles=O.C.C.C.C.C.C.H.H.H.H.H.H pbc="F F F"
O        1.10194952      -0.00103000       0.53828982
C        2.26947918      -0.01024000       0.21058991
C        3.31008875       1.08842962      -0.05680998
C        4.21006829      -0.01821999      -0.67858972
C        3.27931872      -1.12497954      -0.10405996
C        4.29757829       0.01148000      -2.12803919
C        4.36159826       0.03605998      -3.32589881
H        3.70409845       1.53365941       0.86185967
H        2.96528893       1.87745924      -0.72994973
H        5.20750801      -0.04184998      -0.22054991
H        2.91314897      -1.87467930      -0.81005966
H        3.66028845      -1.61974941       0.79452968
H        4.41280838       0.05799997      -4.39110840
