19
Properties=species:S:1:pos:R:3 atomization_energy=-1891.53 smiles=C.C.C.C.C.C.C.H.H.H.H.H.H.H.H.H.H.H.H pbc="F F F"
C        2.84519893      -0.87211965      -1.04417961
C        2.44147902      -0.05116998       0.17230993
C        3.00009879       1.38580945       0.16048993
C        2.42710900       2.17863917       1.34180943
C        4.53836842       1.46876940       0.12421995
C        5.19174791       0.82299966       1.27447951
C        5.72900758       0.29952988       2.21177910
H        2.33438913      -1.84037928      -1.02892959
H        3.92118837      -1.06770956      -1.05957957
H        2.57101908      -0.36024986      -1.97199918
H        2.75057900      -0.57880980       1.08227955
H        1.34537941      -0.00458000       0.20072992
H        2.63509885       1.87379929      -0.75385969
H        2.70447884       1.73347927       2.30294916
H        1.33319951       2.20803904       1.29197944
H        2.78687887       3.21292885       1.32761946
H        4.83934813       2.52352907       0.09049996
H        4.91323829       1.02172957      -0.80357967
H        6.20210749      -0.16394993       3.04663876
