17
Properties=species:S:1:pos:R:3 atomization_energy=-1656.58 smiles=C.O.C.C.C.C.O.H.H.H.H.H.H.H.H.H.H pbc="F F F"
C        1.95883922      -0.13311994      -1.59924939
O        2.20702922       0.36091987      -0.29199987
C        3.06927868       1.48936947      -0.28912989
C        2.31598913       2.76181885      -0.65682974
C        2.98433893       3.80132850       0.20396992
C        3.26295882       3.01158869       1.46054946
O        3.60661860       1.69215927       1.02815960
H        1.29759948      -1.00037963      -1.51851941
H        2.89208890      -0.45269981      -2.07312913
H        1.46314948       0.62261974      -2.21555902
H        3.92598847       1.32281949      -0.95319962
H        1.25352945       2.67469896      -0.39692984
H        2.37274903       2.98784886      -1.72598933
H        3.92611842       4.11675846      -0.25999991
H        2.36947907       4.68733823       0.38078985
H        4.08150829       3.43257866       2.05070925
H        2.37236902       2.94119887       2.09482911
