17
Properties=species:S:1:pos:R:3 atomization_energy=-1751.92 smiles=C.C.C.C.C.C.C.H.H.H.H.H.H.H.H.H.H pbc="F F F"
C        0.97630963      -0.20617992       0.08675996
C        2.49347894      -0.10644995       0.05962998
C        2.95714873       1.34705944      -0.03928998
C        4.45594845       1.43825940      -0.05886998
C        5.15968821       1.93683921      -1.08467959
C        6.57822742       1.99711926      -1.04774959
C        7.77721673       2.04701915      -1.02087959
H        0.66683972      -1.25367946       0.15706993
H        0.53898978       0.21670992      -0.82330971
H        0.56333975       0.32872987       0.94791965
H        2.87501894      -0.68118974      -0.79312969
H        2.89873884      -0.57044975       0.96715959
H        2.58566892       1.91579920       0.82154969
H        2.52820906       1.81124928      -0.93582964
H        4.97603799       1.07761962       0.82705966
H        4.66199811       2.30575912      -1.97651919
H        8.84119671       2.08926912      -0.99573964
