15
Properties=species:S:1:pos:R:3 atomization_energy=-1522.29 smiles=O.C.C.C.C.C.O.H.H.H.H.H.H.H.H pbc="F F F"
O        2.44078914      -0.38390986       1.38490951
C        2.48679897       0.01884999       0.02287999
C        3.01784878       1.41006946      -0.06053998
C        4.21424842       1.79698928      -0.50009980
C        4.32181824       3.26574859      -0.37735985
C        2.89346889       3.64361868      -0.00324000
O        2.17789909       2.44396902       0.34958985
H        1.89725929      -1.18709959       1.41886938
H        1.47700940      -0.02451999      -0.39811983
H        3.12080876      -0.68627970      -0.52395980
H        5.00109802       1.14355958      -0.84445967
H        5.02953777       3.53988859       0.41163984
H        4.63229822       3.74736847      -1.30890948
H        2.37484918       4.11297829      -0.84744967
H        2.86640889       4.33871838       0.84232968
