17
Properties=species:S:1:pos:R:3 atomization_energy=-1665.67 smiles=C.C.O.C.C.C.O.H.H.H.H.H.H.H.H.H.H pbc="F F F"
C        1.28464946      -0.71210972       0.75744973
C        2.77452902      -0.92166963       0.52793979
O        2.95186895      -2.08913917      -0.26413990
C        3.42195855       0.31046989      -0.12033996
C        4.91079825       0.11931995      -0.40773984
C        5.18177780      -0.72152969      -1.63309937
O        4.31686851      -1.06158964      -2.43846896
H        1.10238959       0.13705995       1.42279944
H        0.83731964      -1.60684935       1.20325951
H        0.76183973      -0.53604981      -0.18851993
H        3.25462860      -1.11747950       1.49324944
H        2.89198897      -1.83814931      -1.20952957
H        3.30013882       1.16614954       0.55492980
H        2.89707875       0.56044980      -1.05110957
H        5.41537800      -0.34336985       0.44659983
H        5.37815813       1.09355951      -0.58818978
H        6.23830744      -0.99090964      -1.79542924
