17
Properties=species:S:1:pos:R:3 atomization_energy=-1624.5 smiles=C.C.C.C.C.N.H.H.H.H.H.H.H.H.H.H.H pbc="F F F"
C        1.70340933      -0.46001982      -1.12350959
C        2.68395901      -0.16486993       0.00045000
C        3.03421877       1.29368948       0.05258998
C        4.28220828       1.76834931      -0.09312996
C        4.64692839       3.21668884      -0.04474998
N        5.60414802       3.43768862       1.02681960
H        1.45839947      -1.52684937      -1.14097949
H        2.12617925      -0.19357993      -2.09792913
H        0.77040972       0.09798996      -0.99231961
H        3.58154848      -0.78057968      -0.13301995
H        2.23756912      -0.45397983       0.95878964
H        2.21240917       1.98448919       0.23145991
H        5.10507818       1.07781959      -0.26832988
H        3.76666853       3.84972841       0.10942996
H        5.09798817       3.50396873      -1.00052958
H        5.15643818       3.21089884       1.91353920
H        5.82761763       4.42968834       1.07033961
