15
Properties=species:S:1:pos:R:3 atomization_energy=-1528.48 smiles=C.C.C.C.N.C.N.H.H.H.H.H.H.H.H pbc="F F F"
C       -1.01821958       0.04042999      -1.01584962
C       -0.57990978       1.04410959       0.09290996
C       -1.01626963      -0.06211998       1.10379961
C       -0.54478981      -1.05120955      -0.00406000
N        0.92758963      -1.16310957      -0.03086998
C        1.50649936      -0.00658000       0.01249000
N        0.85092970       1.19098953       0.12906994
H       -2.09652920       0.03222999      -1.21591948
H       -0.49081981       0.09354996      -1.97306919
H       -1.10697962       1.99820920       0.14718995
H       -0.48671981      -0.10146996       2.06048923
H       -2.09399919      -0.08976997       1.30440953
H       -1.05244958      -2.01665916      -0.05005998
H        2.60242902       0.09116996      -0.05373998
H        1.25048949       1.97885918      -0.36761987
