11
Properties=species:S:1:pos:R:3 atomization_energy=-1220.44 smiles=C.C.C.C.C.N.H.H.H.H.H pbc="F F F"
C        2.80695889      -1.13932950       0.68382976
C        2.28745905       0.04941998       0.34362988
C        3.03603883       1.25053945       0.00000000
C        2.37957914       2.37882895      -0.32283986
C        4.44203844       1.25053945       0.00000000
N        5.59304797       1.25053945       0.00000000
H        2.15421906      -1.97391916       0.92258963
H        3.87511848      -1.32710950       0.73765971
H        1.20194953       0.13178995       0.31996988
H        1.29545946       2.43296915      -0.33835987
H        2.91293878       3.29004860      -0.58353975
