15
Properties=species:S:1:pos:R:3 atomization_energy=-1512.8 smiles=C.C.C.O.C.C.O.H.H.H.H.H.H.H.H pbc="F F F"
C        0.93833964       0.05155998      -0.06170998
C        2.45508901      -0.01064000      -0.05353998
C        3.08438878       1.36460946       0.00509000
O        2.46148914       2.41820903      -0.03939998
C        4.56450842       1.38493941       0.05288998
C        5.26945786       2.09183912       1.18179950
O        5.15218792       0.66357973       1.14734960
H        0.51581978      -0.95672961      -0.11148996
H        0.57136975       0.61898977      -0.92327963
H        0.56110977       0.53677980       0.84432965
H        2.80786880      -0.50968980      -0.96275963
H        2.78864898      -0.58875979       0.81384968
H        5.06488786       1.35151952      -0.90589962
H        4.67349837       2.63292905       1.90603928
H        6.24347771       2.52101913       0.98651958
