17
Properties=species:S:1:pos:R:3 atomization_energy=-1638.95 smiles=C.O.C.C.O.C.C.H.H.H.H.H.H.H.H.H.H pbc="F F F"
C        3.40692869      -0.05527998       1.64649930
O        4.61372815       0.21943991       0.94832962
C        4.56967819       1.50592947       0.31972988
C        5.88178760       1.72620936      -0.38271984
O        7.03014715       1.25378948       0.34330986
C        5.98185763       1.62160935      -1.88097926
C        6.10395770       2.96225894      -1.21042951
H        3.50649860      -1.02734961       2.13798911
H        2.56442894      -0.10084996       0.94893963
H        3.22212884       0.70515970       2.41207915
H        4.43590830       2.27765900       1.08679956
H        3.72914864       1.54728934      -0.38197985
H        6.77638719       0.44215984       0.82590966
H        5.08365778       1.41625939      -2.44995912
H        6.88011755       1.18012957      -2.29757905
H        7.08489698       3.42355858      -1.17090951
H        5.28730777       3.66428866      -1.32401945
