17
Properties=species:S:1:pos:R:3 atomization_energy=-1632.86 smiles=C.O.C.C.C.O.C.H.H.H.H.H.H.H.H.H.H pbc="F F F"
C        1.43896946       1.63720935       1.87576925
O        2.78600884       1.26812946       1.60631933
C        3.25089865       1.82817932       0.37876985
C        4.68396809       1.38615943       0.17418993
C        5.40813811       2.02409915      -1.01304963
O        6.48071754       2.49288899      -0.16274994
C        5.74384769       2.09722916       1.02013963
H        1.12231959       1.13694951       2.79474883
H        0.78182966       1.32153954       1.06087958
H        1.36507943       2.71996895       2.02243919
H        3.17114885       2.92111885       0.41967984
H        2.62596900       1.46148939      -0.44339983
H        4.79170799       0.29418989       0.18740992
H        4.89996819       2.86119876      -1.50190945
H        5.76882798       1.32074949      -1.76931927
H        6.33821750       1.44527938       1.66671936
H        5.41139773       2.97324873       1.58486941
