15
Properties=species:S:1:pos:R:3 atomization_energy=-1493.27 smiles=C.C.O.C.C.C.O.H.H.H.H.H.H.H.H pbc="F F F"
C        4.45815837       3.70072857       1.43145945
C        5.71832792       3.64899864       0.98592963
O        6.23251745       2.95297895      -0.07014997
C        5.32929771       2.14130904      -0.82448967
C        6.08750772       1.53925940      -1.96066925
C        6.84873712       0.25132990      -1.79926935
O        5.56543788       0.29537989      -2.44325896
H        4.21513839       4.31391825       2.29400906
H        3.64195860       3.15613867       0.97294965
H        6.51584760       4.20757829       1.46552947
H        4.51854830       2.75707880      -1.23181950
H        4.90635823       1.36031945      -0.18005993
H        6.43164769       2.26744918      -2.68143898
H        6.90551721      -0.20200992      -0.81797965
H        7.71678693       0.08933996      -2.42514915
