19
Properties=species:S:1:pos:R:3 atomization_energy=-1846.88 smiles=C.O.C.C.C.C.C.H.H.H.H.H.H.H.H.H.H.H.H pbc="F F F"
C        3.91604838       2.63868902      -3.12454882
O        4.95287802       2.18181905      -2.26530916
C        4.62828817       1.86566931      -0.96257959
C        3.40078871       1.94644925      -0.41946983
C        5.81735784       1.39521951      -0.13854995
C        6.39991753       0.09863996      -0.70542975
C        6.89375706       2.47929893      -0.05245998
H        4.35708809       2.84181896      -4.10481840
H        3.48006867       3.57127860      -2.75196884
H        3.14739867       1.86965930      -3.25408862
H        2.52907909       2.27578898      -0.97032963
H        3.23281861       1.67632940       0.61847975
H        5.48841780       1.18260948       0.88690967
H        6.79372740       0.23824991      -1.71860926
H        5.63864776      -0.68861976      -0.74458973
H        7.22063706      -0.26266990      -0.07572997
H        7.32070709       2.70781895      -1.03544958
H        7.71315689       2.15697906       0.59950974
H        6.48345735       3.40701877       0.36180987
