11
Properties=species:S:1:pos:R:3 atomization_energy=-1204.62 smiles=O.C.C.O.C.C.C.H.H.H.H pbc="F F F"
O        0.82522969       0.37265986       0.25068990
C        1.99474924       0.26434989      -0.09417996
C        3.03308883       1.14226953       0.46539980
O        4.08804847       1.46743937      -0.45147982
C        3.20217878       2.53519888      -0.07707997
C        3.83905858       3.53352858       0.72602970
C        4.37125851       4.37245809       1.39937944
H        2.32546897      -0.49536982      -0.82172967
H        3.29572882       0.95792963       1.49920938
H        2.49469896       2.88252882      -0.82159965
H        4.84726831       5.11671822       1.99557916
