11
Properties=species:S:1:pos:R:3 atomization_energy=-1205.42 smiles=O.C.C.C.C.C.O.H.H.H.H pbc="F F F"
O        2.26745902      -0.78953971      -0.98501960
C        2.28777900       0.00954000      -0.05852998
C        1.40746943      -0.14955994       1.07577962
C        0.67576973      -0.28572988       2.01907915
C        3.24691862       1.13034953      -0.02355999
C        3.30116858       2.11227921      -1.16646949
O        2.66642905       2.44340910       0.07410997
H        0.02262999      -0.40979984       2.85176888
H        4.16633827       0.94234962       0.51592980
H        2.66768894       1.94160928      -2.02887919
H        4.24823844       2.58720890      -1.38898945
