17
Properties=species:S:1:pos:R:3 atomization_energy=-1619.05 smiles=C.C.C.C.C.N.H.H.H.H.H.H.H.H.H.H.H pbc="F F F"
C        2.70217884      -1.38313940      -0.71944972
C        2.00698920      -0.11865996      -0.23772990
C        2.98813879       0.96798963       0.15071993
C        3.76418862       0.73031971       1.42009950
C        3.63702855       1.78077927      -0.95094964
N        2.57165898       2.35053909      -0.13763995
H        1.96164918      -2.12778913      -1.02992958
H        3.31467865      -1.82848931       0.07066997
H        3.35489874      -1.17438954      -1.57376936
H        1.36938949      -0.35787984       0.62119975
H        1.33795949       0.23367991      -1.03311961
H        4.38394825       1.59224934       1.69328934
H        4.43156820      -0.12967995       1.30848947
H        3.08244886       0.53207982       2.25403904
H        3.37982856       1.56413939      -1.98155925
H        4.63249807       2.18175925      -0.80152967
H        2.94536889       3.00315881       0.55377980
