13
Properties=species:S:1:pos:R:3 atomization_energy=-1360.57 smiles=C.C.C.C.C.N.H.H.H.H.H.H.H pbc="F F F"
C        1.83431930      -0.75818969      -1.17501948
C        2.46228903      -0.23869991      -0.11268996
C        3.19941878       1.07156960      -0.12929994
C        4.68589792       0.88606966       0.17338993
C        5.38257796       2.17867905       0.17009994
N        5.93208782       3.20037865       0.16913993
H        1.30708954      -1.70520934      -1.10085958
H        1.82216929      -0.25632990      -2.13809913
H        2.43041909      -0.77948967       0.83187970
H        2.74375900       1.73337935       0.61813973
H        3.07679891       1.57059932      -1.09945952
H        5.14168791       0.22313991      -0.57197976
H        4.81468830       0.40498984       1.15035953
