14
Properties=species:S:1:pos:R:3 atomization_energy=-1374.26 smiles=C.C.C.C.N.N.H.H.H.H.H.H.H.H pbc="F F F"
C        0.97191963      -0.00512000      -0.06469997
C        2.46700914      -0.03508999      -0.07226997
C        3.17718865      -1.17403955      -0.10565996
C        3.19236864       1.27216954       0.00010000
N        2.71795888       2.32530899       0.71618972
N        4.29611830       1.49557947      -0.64371975
H        0.59890975       0.65290971      -0.85640964
H        0.59619978       0.35735985       0.89738962
H        0.54418976      -0.99893958      -0.23478991
H        2.68629888      -2.14171907      -0.14245995
H        4.26208840      -1.18132953      -0.06093998
H        1.71654936       2.42583902       0.79955965
H        3.19775869       3.18445882       0.46898982
H        4.56470827       0.66979976      -1.18571959
