10
Properties=species:S:1:pos:R:3 atomization_energy=-953.49 smiles=C.C.C.O.H.H.H.H.H.H pbc="F F F"
C        1.00409963      -0.00448000      -0.05821998
C        2.48065900      -0.14247995       0.04742998
C        3.28313876      -0.77086972      -1.05895960
O        3.22287877       0.65364974      -0.88171966
H        0.64939972       0.78204970       0.61531974
H        0.51763978      -0.94249963       0.22707992
H        0.68563973       0.24970990      -1.07483956
H        2.83881899      -0.21509992       1.06451959
H        2.76352889      -1.19249948      -1.90988923
H        4.21180837      -1.26478948      -0.80303968
