16
Properties=species:S:1:pos:R:3 atomization_energy=-1552.97 smiles=C.C.N.C.C.O.C.H.H.H.H.H.H.H.H.H pbc="F F F"
C        0.60372978       0.35839987      -0.79505971
C        0.06748998       1.29956943       0.25075989
N        0.18333993      -0.13182994       0.51433980
C        1.31820953      -0.45809983       1.39008949
C        0.81570968      -0.68272972       2.82317900
O        1.41893940      -2.00725919       2.85428892
C        1.53841939      -1.97713916       1.40358946
H       -0.04298998       0.09831996      -1.62455935
H        1.66141940       0.38725985      -1.02638962
H       -0.94126965       1.67469934       0.12760995
H        0.75519969       1.97735920       0.74119972
H        2.23240920       0.14048994       1.30995943
H       -0.26635990      -0.74504974       2.98195895
H        1.25878955      -0.02310999       3.57494850
H        2.53063901      -2.30137915       1.07665962
H        0.77426969      -2.60903908       0.93801962
