17
Properties=species:S:1:pos:R:3 atomization_energy=-1715.05 smiles=O.C.C.C.C.C.C.H.H.H.H.H.H.H.H.H.H pbc="F F F"
O        2.48863897      -0.71378974      -0.73101974
C        2.10836921       0.28754989      -0.13385995
C        2.97026895       1.48678938       0.16970993
C        4.37482849       1.35534953      -0.40688983
C        5.22387775       2.53983900      -0.04954998
C        6.26464729       3.03844885      -1.01781957
C        5.03419782       3.86025845      -0.75018972
H        1.06974953       0.35718984       0.23293992
H        3.00751884       1.60556941       1.25799950
H        2.46804899       2.36766910      -0.24526991
H        4.31622809       1.23300949      -1.49581944
H        4.85659800       0.44956983      -0.01839999
H        5.47354792       2.55968889       1.00617959
H        6.35124738       2.55860892      -1.98653926
H        7.20805734       3.38918879      -0.61474978
H        5.14790788       4.76567800      -0.16472994
H        4.29432826       3.93318849      -1.53896935
