19
Properties=species:S:1:pos:R:3 atomization_energy=-1796.86 smiles=C.C.C.O.C.C.O.H.H.H.H.H.H.H.H.H.H.H.H pbc="F F F"
C        1.06286959      -0.23239991      -0.30506988
C        2.56557906      -0.15447994      -0.06981997
C        3.08967890       1.28501951      -0.12144995
O        2.45603904       2.07282924       0.88775965
C        4.61044835       1.33237944       0.07655997
C        5.16607775       2.75211898      -0.01637000
O        4.69885816       3.55453869       1.05910961
H        0.73254969      -1.27560945      -0.28641988
H        0.79708971       0.19063992      -1.27868953
H        0.50979979       0.30848988       0.46879981
H        3.07717867      -0.76369973      -0.82429966
H        2.78142903      -0.59570975       0.91129963
H        2.83534893       1.73229937      -1.08950959
H        2.54197903       1.59343934       1.73267926
H        5.10094802       0.70531973      -0.67662974
H        4.85420792       0.93030964       1.06822961
H        4.88292826       3.22965866      -0.95976963
H        6.25879775       2.72956890       0.03773998
H        3.72092844       3.47372859       1.05738959
