17
Properties=species:S:1:pos:R:3 atomization_energy=-1718.83 smiles=C.C.C.O.C.C.C.H.H.H.H.H.H.H.H.H.H pbc="F F F"
C        0.96302962      -0.20451993       0.26016989
C        2.39505915       0.14361995      -0.13744995
C        2.98986877      -0.90019964      -1.07125961
O        2.33576913      -1.68096939      -1.75651926
C        2.52121897       1.51162938      -0.78564971
C        1.72696938       1.77502928      -2.03913922
C        3.31482879       2.46239905      -0.26128990
H        0.54665977       0.55339979       0.93233964
H        0.93550962      -1.16852952       0.78083971
H        0.30154989      -0.29194988      -0.60863977
H        3.00268871       0.10242996       0.77626967
H        4.09320839      -0.90490966      -1.12242961
H        1.98531924       1.05485959      -2.82142883
H        1.92040929       2.77558882      -2.44147902
H        0.65320973       1.70723935      -1.83995928
H        3.89100854       2.29604916       0.64416972
H        3.40532866       3.44293863      -0.72005973
