17
Properties=species:S:1:pos:R:3 atomization_energy=-1700.88 smiles=C.C.C.O.C.C.C.H.H.H.H.H.H.H.H.H.H pbc="F F F"
C        1.41419949       5.76613762      -0.74199968
C        2.70833900       5.01769788      -0.71429970
C        2.78109897       3.67862864      -0.70460974
O        3.88441840       2.87370884      -0.69104971
C        5.16332784       3.50749859      -0.68745973
C        6.20273732       2.42812893      -0.72517972
C        7.16448730       2.32812904      -1.65266931
H        1.34725941       6.42605754       0.12794995
H        0.54817981       5.09715800      -0.73086973
H        1.36006951       6.38029727      -1.64553931
H        3.60322852       5.63121761      -0.70682975
H        1.89520922       3.05000890      -0.71210972
H        5.28895802       4.08837826       0.23357991
H        5.26174813       4.16889843      -1.55746939
H        6.14724765       1.68300936       0.06394998
H        7.25345728       3.04404883      -2.46387897
H        7.88147698       1.51301935      -1.62225935
