15
Properties=species:S:1:pos:R:3 atomization_energy=-1520.52 smiles=C.C.O.C.C.C.O.H.H.H.H.H.H.H.H pbc="F F F"
C        0.90103965       0.18456992      -0.04792998
C        2.42449915       0.22168991      -0.04361999
O        2.88182886      -0.59354979       1.03082958
C        2.99045873      -0.27339991      -1.35479945
C        3.81327840      -1.31896942      -1.52691939
C        2.90917879       1.66116933       0.16434994
O        3.84493841       1.95634921       0.90722966
H        0.47640980       0.80215968      -0.84728969
H        0.50322981       0.55197980       0.90558963
H        0.53112979      -0.84060966      -0.16729993
H        3.74783856      -0.22277991       1.29310950
H        2.69196901       0.28034990      -2.24430914
H        4.14674829      -1.92918929      -0.69193974
H        4.16421844      -1.59720942      -2.51578906
H        2.39470917       2.43472916      -0.43164983
