17
Properties=species:S:1:pos:R:3 atomization_energy=-1698.18 smiles=C.O.C.C.C.C.C.H.H.H.H.H.H.H.H.H.H pbc="F F F"
C        2.64333898      -0.87524963       0.18792994
O        3.98406831      -0.40855985       0.13970995
C        4.04201845       1.02046962       0.09911996
C        5.47006777       1.52040937      -0.03149999
C        6.52905765       0.69212975      -0.10705996
C        5.70681757       2.95996878      -0.08080997
C        4.78005836       3.92563848      -0.01117000
H        2.66068902      -1.96669921       0.25078991
H        2.10583921      -0.58725974      -0.72086971
H        2.12920925      -0.48255981       1.07066953
H        3.60022856       1.41007942       1.02435962
H        3.45514869       1.37141950      -0.75854971
H        6.40251756      -0.38635984      -0.07546997
H        7.54746710       1.05357957      -0.20186992
H        6.74531714       3.27453880      -0.18472993
H        3.72013865       3.72748855       0.09389996
H        5.07922785       4.96868808      -0.05902997
