13
Properties=species:S:1:pos:R:3 atomization_energy=-1339.64 smiles=O.C.C.O.C.C.C.H.H.H.H.H.H pbc="F F F"
O        2.99132876      -1.13200950      -0.25405990
C        2.30845906       0.07769997       0.04570998
C        3.30523868       1.14610951       0.32419987
O        3.55437871       2.04814922      -0.76068973
C        2.87786877       2.58979908       0.38484986
C        3.67143846       3.52748853       1.11722957
C        4.33573834       4.31618822       1.73303933
H        2.32321918      -1.76538934      -0.56548980
H        1.68296937      -0.09219996       0.92731964
H        1.66215936       0.33549986      -0.80010968
H        4.13939838       0.81393970       0.92713966
H        1.82621934       2.82316890       0.27022990
H        4.93122800       5.01511805       2.27262903
