15
Properties=species:S:1:pos:R:3 atomization_energy=-1562.73 smiles=C.C.O.C.C.C.C.H.H.H.H.H.H.H.H pbc="F F F"
C        3.16444869      -0.41112985       0.02320999
C        4.35266825       0.07273997      -0.34369987
O        4.76157812       1.33699949       0.00331000
C        5.86729773       1.91223919      -0.60405977
C        6.14917748       1.78998924      -1.91119921
C        6.67020721       2.75998894       0.25810990
C        6.48007763       2.93746891       1.57341937
H        2.86382881      -1.41653948      -0.24833990
H        2.47273907       0.19336993       0.60022976
H        5.07390820      -0.50437981      -0.90587962
H        5.51773769       1.20965952      -2.57489892
H        7.00376743       2.28487921      -2.36099897
H        7.49521687       3.29228879      -0.21202992
H        5.68072753       2.43928903       2.11306913
H        7.13025705       3.59401869       2.14163908
