15
Properties=species:S:1:pos:R:3 atomization_energy=-1554.79 smiles=C.C.O.C.C.C.C.H.H.H.H.H.H.H.H pbc="F F F"
C        0.99972963      -0.05746998       0.00036000
C        2.51999896       0.00000000       0.00000000
O        3.00074879      -0.68003974      -1.15603950
C        3.00201878       1.36116943       0.00000000
C        3.39929870       2.48306901       0.00000000
C        3.86862852       3.80841850       0.00000000
C        3.03037879       4.85013832       0.00015000
H        0.57926980       0.43258983       0.88494962
H        0.65633971      -1.09773963      -0.01937999
H        0.58322976       0.42762982      -0.89061963
H        2.89967877      -0.53932980       0.87383967
H        2.79820880      -0.11416996      -1.92057924
H        4.94205806       3.97410854       0.00017000
H        1.95274921       4.71790816       0.00084000
H        3.41161877       5.86593767       0.00064000
