14
Properties=species:S:1:pos:R:3 atomization_energy=-1495.37 smiles=C.C.C.C.C.O.N.H.H.H.H.H.H.H pbc="F F F"
C        1.02784961       0.07633997       0.03876998
C        2.50594890      -0.02896999      -0.03021999
C        3.27776865      -1.12082958      -0.03996998
C        4.73713833      -0.75471970      -0.12247995
C        4.63668828       0.76193972      -0.16043994
O        5.55894792       1.55584942      -0.23069991
N        3.29162870       1.07992958      -0.10012996
H        0.55792977      -0.91242964       0.04969998
H        0.64041976       0.62315973      -0.82679970
H        0.72281973       0.60537978       0.94721962
H        2.92059879      -2.13923916       0.00531000
H        5.28379785      -1.07812958       0.76591967
H        5.19436812      -1.12966950      -1.04059959
H        2.96558896       2.03607921      -0.11135996
