13
Properties=species:S:1:pos:R:3 atomization_energy=-1368.53 smiles=C.C.C.C.C.N.H.H.H.H.H.H.H pbc="F F F"
C        0.89589967       0.06324998      -0.00804000
C        2.39830918       0.01228999      -0.00504000
C        3.00351888      -1.36836945      -0.00829000
C        3.13901875       1.13798949       0.00000000
C        4.54501836       1.13798949       0.00000000
N        5.69602789       1.13798949       0.00000000
H        0.51647978       1.09047955      -0.00721000
H        0.49849979      -0.44000982       0.87962966
H        0.50204982      -0.43734984      -0.89852966
H        2.22821924      -2.14118918       0.02178999
H        3.64313850      -1.51585946       0.86820965
H        3.59273861      -1.53092944      -0.91691962
H        2.65876904       2.11073923       0.00252000
