15
Properties=species:S:1:pos:R:3 atomization_energy=-1584.04 smiles=C.C.C.O.C.C.C.H.H.H.H.H.H.H.H pbc="F F F"
C        0.88059963       0.19473993      -0.05186998
C        2.23302917      -0.45787982      -0.00565000
C        2.20301917      -1.94567926       0.05754998
O        1.15562959      -2.58332906       0.05819998
C        3.37041863       0.25989990      -0.01971999
C        4.73425822      -0.21800992       0.00949000
C        5.78666780       0.60958974       0.01046000
H        0.95120961       1.28634955      -0.10565996
H        0.30364989      -0.05421998       0.84526965
H        0.32197989      -0.14190995      -0.93167961
H        3.17327877      -2.46043894       0.10666995
H        3.27281866       1.34606942      -0.06190997
H        4.93313814      -1.28521948       0.02703999
H        5.67957791       1.68989940      -0.00682000
H        6.79820729       0.21454992       0.02967999
