19
Properties=species:S:1:pos:R:3 atomization_energy=-1753.9 smiles=C.C.C.N.C.C.H.H.H.H.H.H.H.H.H.H.H.H.H pbc="F F F"
C        0.96884964      -0.13360995       0.00804000
C        2.50140895      -0.00366000      -0.00507000
C        3.02423881      -0.81113970      -1.20537947
N        2.93952894       1.41423948      -0.05378998
C        2.42661898       2.19184922       1.08107959
C        4.40153826       1.54134933      -0.08678997
H        0.53558981       0.24843990       0.93775966
H        0.66594975      -1.18424951      -0.06634997
H        0.51621979       0.40458983      -0.83228967
H        2.88560878      -0.47565981       0.90946966
H        2.75539904      -0.33348989      -2.15403915
H        2.60142903      -1.82214923      -1.20885950
H        4.11158845      -0.93020965      -1.17322957
H        1.33722950       2.28624912       1.04065959
H        2.80714890       3.22061864       1.05024956
H        2.71008892       1.75224931       2.04265925
H        4.81716821       1.13970951      -1.01591958
H        4.87735830       1.03745958       0.76212972
H        4.70050790       2.59617902      -0.06874997
