19
Properties=species:S:1:pos:R:3 atomization_energy=-1838.28 smiles=C.O.C.C.C.C.C.H.H.H.H.H.H.H.H.H.H.H.H pbc="F F F"
C        1.20161949       2.23377910       1.12131961
O        2.61761885       2.12039910       1.13213957
C        3.09273867       1.36876951       0.01612000
C        4.60066800       1.30415947       0.08557996
C        5.14067808       0.45671983       1.20746953
C        5.38200770       1.33453952      -1.21327946
C        5.38592791       2.53715899      -0.31295987
H        0.89627968       2.81417884       1.99578922
H        0.73735969       1.24471956       1.17870958
H        0.86564963       2.75667886       0.22090991
H        2.76355893       1.85317929      -0.91144964
H        2.67414888       0.35601985       0.04499998
H        6.23659764       0.45859982       1.23128948
H        4.81110823      -0.58129974       1.09186952
H        4.78678804       0.82519967       2.17569927
H        4.84009806       1.40696944      -2.14976920
H        6.29584755       0.75447973      -1.28518945
H        6.29617760       2.76864895       0.22921991
H        4.83361820       3.41659878      -0.62646975
