19
Properties=species:S:1:pos:R:3 atomization_energy=-1867.81 smiles=C.C.O.C.C.C.C.H.H.H.H.H.H.H.H.H.H.H.H pbc="F F F"
C        2.32555905      -0.75589973       1.29673954
C        2.48440915      -0.00902000      -0.00641000
O        2.05706913      -0.50633979      -1.05089957
C        3.21471863       1.34773947       0.00869000
C        2.93025879       2.09613922      -1.30501954
C        2.73311894       2.21594912       1.17825954
C        4.72277816       1.09415956       0.12475995
H        3.28624874      -0.83936965       1.80874931
H        1.96033920      -1.76713925       1.09286951
H        1.59757934      -0.24622991       1.93186930
H        3.28716874       1.53055940      -2.17355924
H        3.42448867       3.07402882      -1.32155947
H        1.85497929       2.26048913      -1.44069944
H        2.99760878       1.77596933       2.14610913
H        1.64382938       2.33522914       1.15815959
H        3.18264884       3.21478878       1.14231950
H        4.97915781       0.60926978       1.07282962
H        5.28800774       2.03123924       0.06941997
H        5.07584813       0.43907982      -0.68002971
