19
Properties=species:S:1:pos:R:3 atomization_energy=-1846.81 smiles=C.C.O.C.C.C.C.H.H.H.H.H.H.H.H.H.H.H.H pbc="F F F"
C        2.24256907       4.54903799       0.29893987
C        3.67582852       4.05365849       0.24694990
O        3.64999863       2.63927897       0.05770997
C        4.85074795       1.98958919      -0.02000999
C        6.09173780       2.49737897       0.03257999
C        7.38103698       1.72354928      -0.05665998
C        7.26775690       0.20920991      -0.16796993
H        2.20904913       5.62960774       0.46578981
H        1.68930932       4.04943850       1.10146959
H        1.72200930       4.32026842      -0.63715976
H        4.17747845       4.29754851       1.19069947
H        4.19520825       4.53873833      -0.58748974
H        4.65108832       0.92999965      -0.14126994
H        6.23318764       3.56800864       0.14957993
H        7.97867700       1.96159922       0.83132967
H        7.94081671       2.09703916      -0.92216962
H        6.75319744      -0.21628992       0.70017975
H        8.26604697      -0.23839991      -0.21635992
H        6.72653714      -0.08521997      -1.07309961
