13
Properties=species:S:1:pos:R:3 atomization_energy=-1344.79 smiles=O.C.C.O.C.C.C.H.H.H.H.H.H pbc="F F F"
O        1.05121959      -0.06378997      -0.22897991
C        2.48080913      -0.00057000      -0.03797999
C        3.29335868      -0.70049970      -1.09577952
O        2.52321896      -1.32945946      -2.13967923
C        3.24859865       0.80630970      -1.05426958
C        4.41281848       1.52300939      -0.62060974
C        5.38867782       2.12532915      -0.26274991
H        0.60381974       0.60812975       0.31627989
H        2.85584883      -0.05174998       0.97936959
H        4.20658839      -1.19621947      -0.78464972
H        1.57232943      -1.24580950      -1.92831925
H        2.67373884       1.29139945      -1.83716925
H        6.25649750       2.65854900       0.04840998
