19
Properties=species:S:1:pos:R:3 atomization_energy=-1768.93 smiles=C.C.C.C.C.N.H.H.H.H.H.H.H.H.H.H.H.H.H pbc="F F F"
C        0.95817962      -0.11575995       0.00292000
C        2.47548898       0.03249999       0.00756000
C        3.00201878       1.48611945      -0.01086999
C        2.56669891       2.23212911      -1.27895952
C        2.55750901       2.26836918       1.23301946
N        4.47225813       1.41901939      -0.01633999
H        0.69010971      -1.17662948       0.01770999
H        0.51283981       0.32315988      -0.89389963
H        0.50528981       0.34970986       0.88286966
H        2.87052896      -0.51230979      -0.86184965
H        2.86205895      -0.48833980       0.89490965
H        2.85093897       1.68239935      -2.18378925
H        3.02744872       3.22606875      -1.33613942
H        1.48199938       2.38234897      -1.30512943
H        2.83342894       1.74382927       2.15518928
H        1.47288946       2.42094910       1.24588949
H        3.02006879       3.26244860       1.26566949
H        4.80085803       0.96779963       0.83684967
H        4.86326813       2.35981907      -0.00666000
