17
Properties=species:S:1:pos:R:3 atomization_energy=-1721.47 smiles=C.C.O.C.C.C.C.H.H.H.H.H.H.H.H.H.H pbc="F F F"
C        0.81922970      -0.00869000      -0.11662995
C        2.29555913      -0.29445989      -0.03387999
O        2.72914902      -1.43252946      -0.21078992
C        3.18918877       0.89887964       0.26045990
C        4.64574798       0.55738978       0.38900986
C        5.60658756       0.82781969      -0.74062971
C        5.66423768       1.66278930       0.50837979
H        0.49370979       0.51801980       0.78353971
H        0.26369990      -0.94968963      -0.18749993
H        0.61222975       0.59679976      -1.00317962
H        2.85137878       1.33744953       1.20639953
H        3.03302877       1.63804936      -0.53367979
H        4.80970829      -0.32745986       0.99665964
H        5.23578779       1.29302951      -1.64646940
H        6.39962735       0.10749996      -0.90965967
H        6.49961765       1.50884944       1.18276958
H        5.32945769       2.69162887       0.44703983
