11
Properties=species:S:1:pos:R:3 atomization_energy=-1237.66 smiles=O.C.O.C.C.C.C.H.H.H.H pbc="F F F"
O        1.17444959       0.09434996       0.41158984
C        2.31400909      -0.02995999       0.02489999
O        3.12423870       0.92370966      -0.50993980
C        4.21519844      -0.01673999      -0.69062970
C        3.39577867      -1.13527958      -0.04222998
C        3.05823868      -2.26310908      -0.88287963
C        2.78350899      -3.20382877      -1.57704941
H        4.46462814      -0.13596995      -1.74996937
H        5.10708775       0.29031989      -0.13569995
H        3.75292859      -1.42096941       0.95336962
H        2.53294910      -4.03876843      -2.19132916
