16
Properties=species:S:1:pos:R:3 atomization_energy=-1609.75 smiles=C.C.C.C.O.N.C.H.H.H.H.H.H.H.H.H pbc="F F F"
C        0.89594963       0.08460997       0.12894995
C        2.40250898      -0.05522998       0.12368995
C        3.21387862       1.06735958       0.81390967
C        3.87451844      -0.09330996       1.57948933
O        4.90182787      -0.27910988       2.18536910
N        2.87056882      -0.94324963       1.20568947
C        3.09264885      -2.35561902       1.07663956
H        0.42091983      -0.83142966      -0.23809990
H        0.58588977       0.90476962      -0.52667980
H        0.50519979       0.28999990       1.13169950
H        2.80258902      -0.35114986      -0.85464969
H        2.65597901       1.75169935       1.45909944
H        3.88909839       1.62260933       0.15982993
H        2.20669917      -2.82201878       0.63945976
H        3.27787866      -2.77326888       2.07005914
H        3.96925848      -2.53768889       0.44829982
