15
Properties=species:S:1:pos:R:3 atomization_energy=-1489.8 smiles=C.O.C.C.C.C.O.H.H.H.H.H.H.H.H pbc="F F F"
C        3.90590845      -1.10543952       0.00095000
O        2.90307893      -0.09744996      -0.06494997
C        3.32454859       1.20186955      -0.10168996
C        4.57380834       1.69295929      -0.09118996
C        4.92202800       3.11732886      -0.13185995
C        4.90346802       3.90360845       1.15535960
O        6.12721760       3.61716857       0.46958982
H        3.40472861      -2.07776912       0.02789999
H        4.50056819      -1.00654957       0.91496967
H        4.54586821      -1.07941962      -0.88675966
H        2.45448897       1.84921933      -0.14282995
H        5.42468801       1.01985961      -0.05269998
H        4.59654843       3.62650861      -1.03397962
H        4.72545791       3.38781863       2.09050920
H        4.54044813       4.92290813       1.12661957
