15
Properties=species:S:1:pos:R:3 atomization_energy=-1564.26 smiles=C.C.O.C.C.C.C.H.H.H.H.H.H.H.H pbc="F F F"
C        0.87147968       0.77762967       0.11992996
C        2.17145909       0.57811980      -0.10539996
O        3.11735889       1.50462946       0.25024990
C        4.44229834       1.23644952       0.00933000
C        5.40576771       2.10858912       0.32437988
C        6.80549713       1.85257925       0.08464997
C        7.77002680       2.72616898       0.39607983
H        0.13527995       0.03536998      -0.16779994
H        0.52234980       1.68747928       0.59668974
H        2.54539912      -0.31888987      -0.57877977
H        4.64095823       0.27684991      -0.44748984
H        5.12921820       3.05539870       0.78239968
H        7.07970702       0.90314965      -0.37019986
H        7.55486697       3.68769844       0.85095966
H        8.81097651       2.49075906       0.19761993
