12
Properties=species:S:1:pos:R:3 atomization_energy=-1191.43 smiles=C.C.C.C.N.N.H.H.H.H.H.H pbc="F F F"
C        0.99999962       0.00000000       0.00000000
C        2.44399905       0.00000000       0.00000000
C        3.63415853       0.00000000       0.00000000
C        5.06641800      -0.05903998      -0.09052997
N        5.62402769       1.09990955      -0.01415999
N        6.97452728       1.05553956      -0.13479995
H        0.60594973       1.02085959       0.01167999
H        0.60590973      -0.52052980       0.87823963
H        0.60592973      -0.50029980      -0.88992963
H        5.57147768      -1.02899961      -0.23292990
H        7.34919731       2.00540922      -0.07173997
H        7.40930716       0.53712979       0.63214973
