17
Properties=species:S:1:pos:R:3 atomization_energy=-1692.18 smiles=C.O.C.C.C.C.C.H.H.H.H.H.H.H.H.H.H pbc="F F F"
C        1.18108956      -0.57563976       0.21376991
O        2.48779896      -0.16350993       0.59171976
C        2.74256900       1.20614946       0.27543988
C        2.33492912       2.04646920       1.45426944
C        1.47121941       3.07121886       1.40671951
C        4.22102830       1.31374944       0.02607999
C        4.78120798       1.73124930      -1.11831951
H        1.06824955      -1.63267937       0.46992981
H        1.03926962      -0.46510981      -0.86601967
H        0.42086983      -0.00436000       0.75503972
H        2.19281918       1.49815943      -0.62936973
H        2.77466882       1.77443932       2.41131912
H        0.99875960       3.37795879       0.47954981
H        1.22085949       3.62410868       2.30662916
H        4.86930792       1.00409963       0.84291969
H        4.18220840       2.03356914      -1.97107918
H        5.86111763       1.76592933      -1.22395951
