17
Properties=species:S:1:pos:R:3 atomization_energy=-1758.38 smiles=C.C.C.C.C.C.C.H.H.H.H.H.H.H.H.H.H pbc="F F F"
C        1.00096958      -0.05381998       0.00304000
C        2.51999896       0.00000000       0.00000000
C        3.00201878       1.36116943       0.00000000
C        3.39929870       2.48306901       0.00000000
C        3.86862852       3.80841850       0.00000000
C        3.05651880       4.87225818      -0.00607000
C        3.55827849       6.27987750      -0.00596000
H        0.65734973      -1.09314960       0.00273000
H        0.58512975       0.44204982      -0.88097964
H        0.58875979       0.44030981       0.88972966
H        2.89555896      -0.53278982      -0.88081966
H        2.89914887      -0.53409980       0.87848963
H        4.94648798       3.94687847       0.00564000
H        1.97695925       4.73734827      -0.01196999
H        4.65452810       6.32680758       0.00324000
H        3.19188871       6.81032726       0.87878965
H        3.20501877       6.80655743      -0.89681967
