17
Properties=species:S:1:pos:R:3 atomization_energy=-1724.73 smiles=O.C.C.C.C.C.C.H.H.H.H.H.H.H.H.H.H pbc="F F F"
O        0.99398959       0.04199998       0.07753997
C        2.40397906       0.01937999       0.00949000
C        2.99175873       1.13461961       0.86410965
C        4.39319821       0.63511973       1.17795952
C        4.20129827      -0.85359968       1.45138945
C        2.99467871      -1.22282957       0.62545973
C        2.52653913      -2.47483898       0.52836979
H        0.67549973      -0.71293970      -0.44199983
H        2.72850885       0.12266995      -1.03248961
H        2.41027902       1.27831949       1.78391928
H        3.00140889       2.09320915       0.33520987
H        5.04929783       0.78074969       0.31118989
H        4.83939809       1.15757948       2.02986921
H        5.09177780      -1.42203942       1.16729953
H        3.99201851      -1.01762963       2.51435910
H        1.64190939      -2.71722889      -0.05133998
H        3.01890882      -3.29658877       1.04000958
