17
Properties=species:S:1:pos:R:3 atomization_energy=-1702.27 smiles=O.C.C.C.C.C.C.H.H.H.H.H.H.H.H.H.H pbc="F F F"
O        1.11481955       0.43407981      -0.04436998
C        2.48447904       0.05652998      -0.10855996
C        2.66657894      -0.69081971      -1.39464949
C        3.15991884      -1.93361921      -1.49360940
C        3.31368876       1.30439943      -0.01132000
C        3.78050839       1.81235928       1.33153942
C        4.77402815       1.23582955       0.36100986
H        1.00559961       0.91810961       0.79032970
H        2.68097898      -0.60441978       0.74449971
H        2.35978904      -0.17180994      -2.29904913
H        3.46863857      -2.49624903      -0.61859973
H        3.25453878      -2.41512908      -2.46141899
H        3.02635890       2.04023914      -0.75580971
H        3.55510870       1.23448954       2.22074923
H        3.79294858       2.88467894       1.49201946
H        5.45326806       1.91737930      -0.13924995
H        5.20651787       0.26703990       0.58439976
