17
Properties=species:S:1:pos:R:3 atomization_energy=-1700.93 smiles=O.C.C.C.C.C.C.H.H.H.H.H.H.H.H.H.H pbc="F F F"
O        0.83989966      -0.19926992       0.38275986
C        2.22202905       0.09909996       0.11296996
C        2.88266887       1.13908953       1.04649960
C        4.16908843       0.29341987       0.97000961
C        3.26838874      -0.92766962       0.65381975
C        3.79240859      -1.89036926      -0.34619987
C        4.88214805      -2.61796909      -0.07295997
H        0.64717978      -0.98852959      -0.15169994
H        2.35432910       0.35312987      -0.94711963
H        2.43911897       1.18833955       2.04775924
H        2.96613878       2.15218905       0.64440975
H        4.84122800       0.59736978       0.15864994
H        4.74281831       0.23109991       1.89892922
H        2.91309875      -1.44266939       1.55804937
H        3.27635862      -2.01104921      -1.29515944
H        5.41532804      -2.52414905       0.86768966
H        5.26947805      -3.33104864      -0.79662971
