15
Properties=species:S:1:pos:R:3 atomization_energy=-1600.29 smiles=O.C.C.C.C.C.C.H.H.H.H.H.H.H.H pbc="F F F"
O        0.99282963      -0.02924999       0.25297991
C        2.19294913       0.01645999       0.01465000
C        2.94088875       1.28161947      -0.00604000
C        4.25242815       1.38192947      -0.24722991
C        4.70052809       2.80519888      -0.17711993
C        3.38186866       3.58119849      -0.19152993
C        2.29892902       2.59865893       0.25938989
H        2.78103892      -0.89225966      -0.19692993
H        4.92433784       0.55737975      -0.44422984
H        5.26167798       2.98156884       0.74594974
H        5.32641811       3.07752891      -1.03154961
H        3.16695863       3.92430844      -1.21248954
H        3.42128861       4.47152839       0.44500983
H        1.37745943       2.74336889      -0.31192988
H        2.08089917       2.71218882       1.32623946
