15
Properties=species:S:1:pos:R:3 atomization_energy=-1527.09 smiles=O.C.C.O.C.C.C.H.H.H.H.H.H.H.H pbc="F F F"
O        1.10310962       0.02163999       0.64723976
C        2.44653902       0.00914999       0.15833995
C        2.69664900       1.19519955      -0.77495969
O        3.98587853       1.18479959      -1.39437950
C        4.34141832      -0.03236999      -1.91053923
C        3.77852860      -1.19919950      -1.59831942
C        2.69670906      -1.31600945      -0.57105976
H        0.93152966       0.90246962       1.02710959
H        3.12282867       0.07487997       1.01930959
H        2.61257904       2.12973914      -0.20658992
H        1.92488919       1.25208953      -1.55567935
H        5.16915821       0.06972997      -2.60326903
H        4.12393830      -2.11271915      -2.07589922
H        1.78041932      -1.67314939      -1.05037958
H        2.97456892      -2.07765924       0.16526994
