17
Properties=species:S:1:pos:R:3 atomization_energy=-1710.94 smiles=C.C.C.O.C.C.C.H.H.H.H.H.H.H.H.H.H pbc="F F F"
C        0.95152963       0.09340996      -0.04818999
C        2.41742908      -0.25907991      -0.11374995
C        2.68926882      -1.67660936      -0.54222978
O        2.20073910      -2.56514909       0.45081982
C        3.34595864       0.67246974       0.17868992
C        4.78041818       0.50707982       0.16127994
C        5.62509757       1.50296937       0.45701982
H        0.78601969       1.13744950       0.23837991
H        0.43719983      -0.53420981       0.68726972
H        0.48097981      -0.05827998      -1.02564960
H        3.74740859      -1.89646924      -0.69833975
H        2.17491905      -1.89405923      -1.48424942
H        2.56835900      -2.25917902       1.29911953
H        3.00045886       1.66716939       0.46465981
H        5.20227819      -0.45851983      -0.09993996
H        5.28079813       2.49617914       0.72693973
H        6.69855713       1.34030945       0.43189983
