17
Properties=species:S:1:pos:R:3 atomization_energy=-1665.59 smiles=O.C.C.C.C.O.C.H.H.H.H.H.H.H.H.H.H pbc="F F F"
O        1.04975960      -0.00774000       0.18279993
C        2.47603906       0.00446000       0.05660998
C        2.91176897      -1.35557953      -0.48098980
C        2.53864901      -1.50597943      -1.95494928
C        3.02789888      -0.31024989      -2.76037879
O        2.51526900       0.91192964      -2.22540903
C        2.94623893       1.12914957      -0.87597963
H        0.72515972       0.89874962       0.04811998
H        2.88255885       0.16254993       1.05994962
H        2.44327915      -2.16463908       0.09160997
H        3.99828843      -1.45826939      -0.37432986
H        2.95999881      -2.43322905      -2.35924905
H        1.44770946      -1.57521938      -2.04089924
H        4.12380835      -0.26564990      -2.78025896
H        2.68298905      -0.39046984      -3.79549838
H        4.03763849       1.22347958      -0.86072967
H        2.51949909       2.08694919      -0.56061981
