19
Properties=species:S:1:pos:R:3 atomization_energy=-1792.51 smiles=C.C.C.O.C.C.O.H.H.H.H.H.H.H.H.H.H.H.H pbc="F F F"
C        1.14015954      -0.43868981       0.53526979
C        2.42196902      -0.19723992      -0.27008989
C        2.64507905      -1.31970950      -1.29101944
O        1.67386929      -1.28496955      -2.33021910
C        2.36039918       1.20351954      -0.91620962
C        3.59607847       1.57821935      -1.72719938
O        4.75694835       1.47625948      -0.91398961
H        1.04234958       0.30445986       1.33407952
H        1.15522952      -1.42831944       1.00276959
H        0.24691990      -0.37201986      -0.09381997
H        3.25896870      -0.22382991       0.43844982
H        2.60476888      -2.30377908      -0.81119970
H        3.63155851      -1.23227950      -1.75569931
H        0.82371968      -1.55564945      -1.94260928
H        2.24239899       1.94076927      -0.11114996
H        1.47444938       1.29011950      -1.55712937
H        3.50999869       2.61179908      -2.07682919
H        3.71678844       0.93173967      -2.60080905
H        5.51081775       1.74987929      -1.46394937
