21
Properties=species:S:1:pos:R:3 atomization_energy=-2045.79 smiles=C.C.C.C.C.C.C.H.H.H.H.H.H.H.H.H.H.H.H.H.H pbc="F F F"
C        2.92141888      -1.04078960      -0.68474976
C        2.40186907       0.16565993       0.07953997
C        3.39530858       1.28782947       0.07832997
C        3.50810873       2.29631916      -1.04938961
C        2.64653904       2.25329920      -2.26415903
C        2.91990892       2.70905891       0.27848990
C        3.67295850       3.63091860       1.17614955
H        2.19155904      -1.85617926      -0.65223977
H        3.85972855      -1.40476949      -0.25290990
H        3.11074882      -0.79305967      -1.73397927
H        2.20715917      -0.12649995       1.11794960
H        1.44032940       0.47781980      -0.34235987
H        4.31847838       0.99415960       0.57031980
H        4.50891833       2.63691892      -1.29796953
H        1.59941934       2.03469921      -2.03379914
H        3.01210874       1.49096938      -2.96073890
H        2.67792905       3.22013871      -2.77693879
H        1.85183928       2.89030895       0.33395988
H        4.75390826       3.46042872       1.12939950
H        3.35113875       3.49248866       2.21293906
H        3.48004873       4.67075805       0.89464962
