16
Properties=species:S:1:pos:R:3 atomization_energy=-1558.06 smiles=C.C.C.C.C.N.O.H.H.H.H.H.H.H.H.H pbc="F F F"
C        0.95576961       0.09820996      -0.21210992
C        2.42431898      -0.01579000       0.01524000
C        3.27721882      -0.80869966      -0.93533961
C        3.39396870       0.69819971      -0.90066967
C        4.60246813       1.32904942      -0.33366986
N        5.70487765       1.22437952      -0.99658961
O        6.71773734       1.88879926      -0.29551990
H        0.56853979       0.99696963       0.27785989
H        0.44112983      -0.76979971       0.21164992
H        0.70605970       0.15605994      -1.27656944
H        2.66134887      -0.08116997       1.07147964
H        2.81620885      -1.25527949      -1.80903924
H        4.09314833      -1.39419946      -0.52481981
H        2.98059888       1.23419949      -1.74955934
H        4.51517817       1.86911931       0.62445974
H        7.49485704       1.74392932      -0.86710968
