13
Properties=species:S:1:pos:R:3 atomization_energy=-1385.49 smiles=O.C.O.C.C.C.C.H.H.H.H.H.H pbc="F F F"
O        1.09840957      -0.14742995       0.02751999
C        2.44654911      -0.26327989       0.06219997
O        3.00491882      -1.34252946       0.17274994
C        3.13932887       1.06979962      -0.05021998
C        4.65424802       0.90673963      -0.00856000
C        5.32379790       2.21111925      -0.13133995
C        5.87628779       3.27231880      -0.23275991
H        0.78189968       0.77144970      -0.06394998
H        2.80627886       1.70367933       0.77997970
H        2.83677889       1.53764940      -0.99443963
H        4.98517793       0.24731989      -0.81993970
H        4.95559815       0.42646982       0.93022965
H        6.37443763       4.21043846      -0.32295988
