14
Properties=species:S:1:pos:R:3 atomization_energy=-1426.2 smiles=C.C.C.C.C.N.O.H.H.H.H.H.H.H pbc="F F F"
C        0.75153969      -0.07011997       0.02647999
C        2.16861910       0.43140983      -0.01594999
C        1.02571962       1.38886947      -0.20612993
C        0.69670975       2.42303916       0.79076970
C        0.33630987       3.53048849      -0.13106995
N        0.39475986       3.25816881      -1.39195952
O        0.81444966       1.90607928      -1.53637942
H        0.35197986      -0.37753985       0.98509959
H        0.39466984      -0.65616977      -0.81253971
H        2.76928886       0.18631994      -0.88521962
H        2.72501886       0.46397981       0.91270966
H        1.54261944       2.72425883       1.41389946
H       -0.16530994       2.17465915       1.41482943
H        0.03811998       4.51272803       0.26109990
