16
Properties=species:S:1:pos:R:3 atomization_energy=-1561.34 smiles=C.C.C.N.C.C.O.H.H.H.H.H.H.H.H.H pbc="F F F"
C        1.07859954       0.03025999       0.03049999
C        0.64288977       0.70268975       1.29905947
C       -0.48540980       0.12530995       2.11641921
N        0.89662966       0.05975998       2.58562905
C        2.56016908       0.11660995      -0.16856993
C        3.44541854      -1.08515953       0.03030999
O        3.04886887      -0.64988975      -1.27884950
H        0.75073968      -1.01701962       0.01236000
H        0.58142976       0.52677979      -0.81134971
H        0.75291969       1.78024925       1.26216953
H       -0.92419963      -0.81835966       1.81811925
H       -1.14651955       0.80280969       2.64172885
H        1.06564953       0.75631973       3.31458882
H        2.96910872       1.10758951      -0.02961999
H        3.00777874      -1.99999924       0.40980984
H        4.47491821      -0.92173965       0.32166987
