16
Properties=species:S:1:pos:R:3 atomization_energy=-1599.82 smiles=C.C.C.C.N.C.O.H.H.H.H.H.H.H.H.H pbc="F F F"
C        1.06412961       0.06692997      -0.01012000
C        2.54649903      -0.02514999      -0.05229998
C        3.29480883      -1.12741959      -0.05304998
C        4.72446827      -0.75126970      -0.05620997
N        5.32892780      -1.09779956       1.22776946
C        4.61345816       0.75944971      -0.33097988
O        3.25774868       1.17279960      -0.05317998
H        0.59903977      -0.92336965      -0.02648999
H        0.69428971       0.62873972      -0.87319963
H        0.74113974       0.57943974       0.90084965
H        2.92795879      -2.14167921      -0.02412999
H        5.27806791      -1.24609956      -0.86055967
H        4.80947817      -0.62078977       1.96626924
H        6.27149758      -0.71509971       1.26986954
H        4.82280832       0.97887962      -1.38571949
H        5.30150797       1.35634952       0.27741989
