15
Properties=species:S:1:pos:R:3 atomization_energy=-1517.14 smiles=O.C.C.O.C.C.C.H.H.H.H.H.H.H.H pbc="F F F"
O        0.98997961       0.02488999       0.00940999
C        2.40257913      -0.00007000      -0.00500000
C        2.99863880       1.07660954       0.88594968
O        4.31111838       0.60554979       1.22287953
C        4.19643837      -0.81880969       1.38532951
C        2.97170875      -1.23056958       0.62417978
C        2.47321901      -2.47537896       0.59881973
H        0.69081971      -0.69722975      -0.56666977
H        2.77180890       0.10517996      -1.03151958
H        2.41960896       1.23072956       1.80500925
H        3.07525868       2.03977914       0.37214984
H        5.10478800      -1.28290951       0.99147960
H        4.09817830      -1.03605959       2.45373904
H        1.56498937      -2.72039893       0.05943998
H        2.96687887      -3.28675870       1.12590951
