17
Properties=species:S:1:pos:R:3 atomization_energy=-1715.76 smiles=C.O.C.C.C.C.C.H.H.H.H.H.H.H.H.H.H pbc="F F F"
C        2.03651915      -0.26625991      -1.51423937
O        2.14461912       0.40564984      -0.26711989
C        3.29800864       1.23644952      -0.18669993
C        3.57952857       1.57506937       1.28192946
C        2.93263878       2.93870886       1.53494945
C        2.82052902       3.51578868       0.16389994
C        3.00913881       2.58180901      -0.77476969
H        1.13123951      -0.87940963      -1.49531944
H        2.89688874      -0.92419963      -1.67032934
H        1.95347920       0.44749983      -2.33895910
H        4.17129835       0.75176970      -0.63825974
H        4.66289793       1.66249937       1.43739945
H        3.20108871       0.81871967       1.97726924
H        3.55769863       3.55562851       2.18741904
H        1.94024922       2.83651899       1.98656916
H        2.56590911       4.54692800      -0.03363999
H        2.93281895       2.76084889      -1.83739925
