13
Properties=species:S:1:pos:R:3 atomization_energy=-1345.93 smiles=O.C.C.O.C.C.C.H.H.H.H.H.H pbc="F F F"
O        1.37859946       3.02727890       0.92620963
C        2.07773922       2.02545922       1.04648957
C        2.85774889       1.41089950      -0.09495997
O        4.23174834       1.26225948       0.22338992
C        4.95407811       2.48783908       0.09826996
C        6.35919733       2.24368916       0.43963984
C        7.50927727       2.03985925       0.71731973
H        2.15490919       1.49597942       2.01159916
H        2.72029900       1.99669926      -1.01005962
H        2.44363897       0.41255984      -0.26607991
H        4.53212827       3.24047863       0.77295972
H        4.87892831       2.85416881      -0.93171960
H        8.52894687       1.84971932       0.96347959
