15
Properties=species:S:1:pos:R:3 atomization_energy=-1494.91 smiles=O.C.C.O.C.C.C.H.H.H.H.H.H.H.H pbc="F F F"
O        1.49247945      -0.03079999       1.17363949
C        2.26860915       0.14786995      -0.00391000
C        3.30579861       1.18072949       0.25521990
O        3.62602868       2.00567922      -0.86970964
C        2.95956884       2.64939896       0.23311990
C        3.67531856       3.55343853       1.13861956
C        3.39553871       3.74954861       2.43477912
H        0.81422969      -0.69453970       0.96210962
H        1.59924939       0.43661982      -0.82116968
H        2.74148902      -0.80577969      -0.25884990
H        4.11092835       0.83051969       0.88605963
H        1.91861926       2.91688877       0.07752997
H        4.50329841       4.10542829       0.69978971
H        2.58178908       3.22109883       2.92111885
H        3.98182836       4.44061832       3.03217892
