14
Properties=species:S:1:pos:R:3 atomization_energy=-1444.86 smiles=C.O.C.C.C.N.C.H.H.H.H.H.H.H pbc="F F F"
C        0.71887970      -1.22358947       0.51301979
O       -0.60391979      -1.56331944       0.04222998
C       -1.53133935      -0.56491978      -0.05548998
C       -1.26126946       0.74313971       0.01366000
C        0.08593996       1.25767955       0.19006992
N        1.05190959       0.95104963      -0.86487964
C        1.14202957       0.21375992       0.39619985
H        1.42944938      -1.86231923      -0.02302999
H        0.75771973      -1.51518939       1.56910943
H       -2.51720893      -0.96495964      -0.25081990
H       -2.06887924       1.45827949      -0.10721996
H        0.18903992       2.21247907       0.69109973
H        1.76332930       1.67990935      -0.91805965
H        1.99939920       0.44073981       1.01679958
