11
Properties=species:S:1:pos:R:3 atomization_energy=-1208.95 smiles=O.C.C.C.C.C.O.H.H.H.H pbc="F F F"
O        0.85301969       0.16469994      -0.09153996
C        2.06990913       0.05851998      -0.05250998
C        2.91921880       1.22268953      -0.02941999
C        3.62898852       2.19018913      -0.00971000
C        4.47404817       3.34391880       0.01690999
C        4.64576817       4.16977831      -1.22977953
O        3.75962849       4.57201831      -0.17876993
H        2.59086897      -0.91157966      -0.03433998
H        5.27678808       3.35315866       0.74467969
H        4.19985847       3.82914852      -2.15594904
H        5.56343790       4.73117826      -1.35047941
