15
Properties=species:S:1:pos:R:3 atomization_energy=-1526.01 smiles=C.C.O.C.O.C.C.H.H.H.H.H.H.H.H pbc="F F F"
C        2.45556894      -1.12222951      -0.77785967
C        2.61255886      -0.12378995       0.33851986
O        2.25778918      -0.38230986       1.49229942
C        3.26856864       1.21999955      -0.00676000
O        2.99691891       2.18249908       1.00303958
C        4.75523805       1.05733957      -0.07706997
C        5.49520804       1.24541952      -1.17934948
H        1.99951918      -0.63763976      -1.64564932
H        1.79704934      -1.93387924      -0.45260982
H        3.43045858      -1.53660942      -1.04642958
H        2.84180887       1.59331935      -0.94291964
H        2.81289877       1.67224933       1.81691929
H        5.25782792       0.78160970       0.84875965
H        5.05299801       1.54349945      -2.12492920
H        6.57459738       1.12558956      -1.14770954
