17
Properties=species:S:1:pos:R:3 atomization_energy=-1665.8 smiles=C.C.C.C.O.C.O.H.H.H.H.H.H.H.H.H.H pbc="F F F"
C        1.39644950      -0.61979975       0.22880992
C        2.91513885      -0.55038980       0.25552990
C        3.41760861       0.83699968      -0.14902995
C        4.94220794       0.93059963      -0.12469996
O        5.49998770      -0.00408000      -1.04264960
C        5.37329772       2.34870918      -0.47137980
O        6.03185758       2.61538900      -1.47408943
H        1.05689956      -1.61902938       0.52091981
H        1.01143963      -0.41110985      -0.77524969
H        0.95687962       0.10473996       0.92276967
H        3.31502863      -1.31158948      -0.42309984
H        3.26907861      -0.79404969       1.26310946
H        2.98918874       1.59499938       0.51851979
H        3.05551880       1.06261953      -1.16129960
H        5.33194769       0.69935974       0.87169965
H        5.85037791       0.51842980      -1.79378935
H        5.06460778       3.13340867       0.23954991
