19
Properties=species:S:1:pos:R:3 atomization_energy=-1898.54 smiles=C.C.C.C.C.C.C.H.H.H.H.H.H.H.H.H.H.H.H pbc="F F F"
C        0.99999962       0.00000000       0.00000000
C        2.44399905       0.00000000       0.00000000
C        3.63415853       0.00000000       0.00000000
C        5.07815797       0.00000000       0.00000000
C        5.59381758      -0.71095972       1.26063952
C        5.59892779      -0.73495970      -1.24389948
C        5.59644788       1.44617945      -0.01159999
H        0.60602978       1.02087959       0.01167999
H        0.60602978      -0.52055979       0.87826966
H        0.60602978      -0.50031980      -0.88994963
H        5.24509780      -0.21077991       2.17249920
H        6.68936722      -0.72740970       1.28798945
H        5.24338800      -1.74935936       1.30548950
H        5.25110783      -0.25515990      -2.16679903
H        5.25269802      -1.77542934      -1.26773949
H        6.69483726      -0.74802970      -1.26774946
H        5.25408786       1.98610916      -0.90270965
H        6.69201721       1.47556948      -0.00444000
H        5.24222779       2.00473916       0.86318965
