19
Properties=species:S:1:pos:R:3 atomization_energy=-1849.44 smiles=C.C.O.C.C.C.C.H.H.H.H.H.H.H.H.H.H.H.H pbc="F F F"
C        1.43438939       0.10651996      -0.46574982
C        2.94365885       0.22311991      -0.36796985
O        3.28129876       1.61004942      -0.30950986
C        4.62974816       1.82826928      -0.22659990
C        5.16360793       3.05660888      -0.14447994
C        4.33992805       4.31288824      -0.13117995
C        6.64916733       3.25881882      -0.05941998
H        1.12605952      -0.94170965      -0.51104980
H        1.06517956       0.62257975      -1.35824945
H        0.95433965       0.57964975       0.39726986
H        3.40544876      -0.23934990      -1.24856950
H        3.29430870      -0.28653990       0.53743978
H        5.23939814       0.93310963      -0.23514991
H        3.26450863       4.11618845      -0.17967993
H        4.60008814       4.94351804      -0.98764958
H        4.53034832       4.87928813       0.78639970
H        7.19666711       2.31034903      -0.07217997
H        6.90906751       3.78098858       0.86715964
H        6.99988708       3.85737859      -0.90647967
