15
Properties=species:S:1:pos:R:3 atomization_energy=-1505.56 smiles=C.O.C.C.C.C.O.H.H.H.H.H.H.H.H pbc="F F F"
C        4.27806854      -0.41884982       1.52624945
O        3.94489842       0.92234966       1.86364927
C        3.16599876       1.56157936       0.85863968
C        2.51345903       2.80879889       1.40520943
C        2.65887905       3.31358858       2.64120905
C        4.02644835       1.98467920      -0.32163987
O        3.65268848       1.93262919      -1.49396947
H        4.80443810      -0.86437965       2.37461906
H        4.94244816      -0.44254982       0.65644973
H        3.37648871      -1.00784959       1.32890951
H        2.37136903       0.88602967       0.50756981
H        1.86287928       3.33844876       0.70888972
H        3.28722880       2.83010877       3.38622869
H        2.14169914       4.22150824       2.93657893
H        5.01074817       2.40857906      -0.05853998
