12
Properties=species:S:1:pos:R:3 atomization_energy=-1276.23 smiles=C.C.C.N.O.C.C.H.H.H.H.H pbc="F F F"
C        2.12335920       0.60354975       0.84993968
C        2.45864915      -0.04289998      -0.52805980
C        3.40526860       1.08812959      -0.72994973
N        3.67126864       1.99044926      -1.66280936
O        3.68693866       3.21239870      -0.94135960
C        3.21342871       2.99102874       0.33654987
C        3.08762871       1.65231932       0.47764982
H        2.42941910      -0.00053000       1.71082939
H        1.10210963       0.95714961       1.01814962
H        1.66657932      -0.11426995      -1.27902955
H        2.95469884      -1.01749961      -0.45714983
H        2.92205878       3.87540841       0.88167966
