14
Properties=species:S:1:pos:R:3 atomization_energy=-1405.43 smiles=C.C.N.C.C.O.C.H.H.H.H.H.H.H pbc="F F F"
C       -1.02552962       0.00024000      -1.26799951
C       -0.54250981       0.99971960      -0.13247995
N       -1.30914944       0.00023000       0.77240969
C       -0.54203977      -0.99996959      -0.13244996
C        0.91756962      -0.77043968       0.23634991
O        1.72828932       0.00026000      -0.64465974
C        0.91838964       0.77005967       0.23632991
H       -2.09702919       0.00023000      -1.49983945
H       -0.44998984       0.00008000      -2.19704901
H       -0.92722962       2.01986919      -0.14209994
H       -1.01159960      -0.00005000       1.74626931
H       -0.92749961      -2.01977924      -0.14226995
H        1.28940944      -1.29513951       1.10157961
H        1.28950949       1.29499946       1.10177958
