19
Properties=species:S:1:pos:R:3 atomization_energy=-1786.83 smiles=C.O.C.C.C.C.O.H.H.H.H.H.H.H.H.H.H.H.H pbc="F F F"
C        2.38062909      -0.26526989      -0.66658973
O        3.50000864       0.56116977      -0.38219985
C        3.22105871       1.93283926      -0.03006999
C        2.53081892       2.66924886      -1.18606957
C        2.38831913       2.02998919       1.25271947
C        4.60813801       2.56538906       0.23369990
O        5.44683765       2.43271908      -0.91612963
H        2.75573893      -1.26294948      -0.91289966
H        1.82235930       0.10306996      -1.53067938
H        1.72530929      -0.36128985       0.20245992
H        3.04716891       2.48984890      -2.13587912
H        2.49476911       3.74934851      -1.00584961
H        1.49892942       2.32621915      -1.32000953
H        2.82539900       1.41716942       2.04948922
H        1.36607941       1.66731940       1.09884951
H        2.31899919       3.06476877       1.60673934
H        5.11720774       2.05468914       1.05886964
H        4.53041847       3.62929864       0.47989979
H        5.33519773       1.50219938      -1.19555950
