15
Properties=species:S:1:pos:R:3 atomization_energy=-1513.15 smiles=O.C.C.C.C.C.O.H.H.H.H.H.H.H.H pbc="F F F"
O        0.89616966       0.23550991       0.21125992
C        2.32977903       0.07660997       0.02155999
C        3.19205878       1.02882960       0.91058964
C        4.09775843      -0.16613993       1.24781945
C        2.94713875      -1.10075953       0.84207968
C        2.69592885       0.08425996      -1.52286935
O        3.81146843      -0.03161999      -2.03036920
H        0.75728969       0.21945990       1.17444959
H        2.65816899       1.43967939       1.77530936
H        3.69115865       1.85072928       0.38896986
H        4.97855828      -0.24659990       0.60080974
H        4.41864834      -0.23655990       2.29028920
H        3.25069880      -1.97963927       0.26577988
H        2.32774903      -1.43386947       1.68289935
H        1.81991925       0.21054992      -2.18178902
