19
Properties=species:S:1:pos:R:3 atomization_energy=-1897.65 smiles=C.C.C.C.C.C.C.H.H.H.H.H.H.H.H.H.H.H.H pbc="F F F"
C        0.94932961       0.00549000       0.01920999
C        2.47004897       0.00994000       0.01907999
C        3.02738892       1.43281939       0.00000000
C        4.47138809       1.43281939       0.00000000
C        5.66154783       1.43281939       0.00000000
C        7.10554726       1.43281939       0.00000000
C        7.66373680       2.84632888      -0.00121000
H        0.57349981      -1.02231958       0.03297999
H        0.55568976       0.49918979      -0.87485966
H        0.55576981       0.52292979       0.89978967
H        2.83121878      -0.54768979      -0.85417966
H        2.83129876      -0.52410978       0.90692964
H        2.65574888       1.98351923       0.87223964
H        2.65573904       1.95993926      -0.88668964
H        7.48231719       0.89815967      -0.87916966
H        7.48231719       0.89965965       0.88008966
H        7.33563703       3.40146874      -0.88710965
H        8.75830690       2.82311894      -0.00119000
H        7.33563703       3.40297869       0.88374967
