17
Properties=species:S:1:pos:R:3 atomization_energy=-1662.49 smiles=C.C.C.O.C.C.O.H.H.H.H.H.H.H.H.H.H pbc="F F F"
C        1.01026963      -0.09062997      -0.06466998
C        2.52954893      -0.00602000       0.01012000
C        3.02580882       1.43244947       0.19871992
O        2.50628904       1.97163923       1.41529940
C        4.54837840       1.48965940       0.25165990
C        5.00479820       2.91809895       0.13340995
O        5.92030748       3.26633879      -0.60768974
H        0.69856975      -1.12752960      -0.22228991
H        0.62636976       0.50973980      -0.89497967
H        0.54543981       0.26248989       0.86048964
H        2.95537887      -0.42927984      -0.90756967
H        2.86648888      -0.63086977       0.84719967
H        2.65325888       2.06044923      -0.61797975
H        2.57302889       1.29198953       2.10934914
H        4.99319803       0.91929967      -0.57110978
H        4.92715789       1.10166956       1.20452950
H        4.52538799       3.64173857       0.81497968
