21
Properties=species:S:1:pos:R:3 atomization_energy=-1984.45 smiles=C.O.C.C.C.C.C.H.H.H.H.H.H.H.H.H.H.H.H.H.H pbc="F F F"
C        2.37315907      -0.64857977       0.32979985
O        3.69730847      -0.18009994       0.11553995
C        3.76841844       1.24508948       0.16492994
C        5.21974810       1.72111933      -0.06806997
C        6.14822771       1.14911957       1.01623960
C        5.71784798       1.25605945      -1.44690944
C        5.25758770       3.25647870      -0.00786000
H        2.38171915      -1.74055931       0.27948989
H        1.70157930      -0.26825989      -0.44607984
H        2.01537921      -0.34722986       1.31919942
H        3.41334875       1.58728939       1.14485959
H        3.10749879       1.66298940      -0.60445978
H        5.81432785       1.44523938       2.01701924
H        7.17449728       1.51116938       0.88758964
H        6.17913778       0.05445998       0.98465958
H        5.06947777       1.63118936      -2.24682917
H        5.74110788       0.16371993      -1.52015944
H        6.73245733       1.62111932      -1.64297940
H        4.61235800       3.69850856      -0.77526968
H        6.27336735       3.63459860      -0.16865993
H        4.91641817       3.62262851       0.96693962
