17
Properties=species:S:1:pos:R:3 atomization_energy=-1668.94 smiles=O.C.C.C.C.O.C.H.H.H.H.H.H.H.H.H.H pbc="F F F"
O        1.01994962       0.03015999      -0.00966000
C        2.43328910       0.00598000       0.01203000
C        2.97977880       1.12417953       0.88386965
C        4.39179827       0.65246977       1.17941951
C        4.23347858      -0.84977970       1.40917948
O        5.37492778      -1.55970933       0.95914965
C        2.97262875      -1.27312953       0.65084975
H        0.71766971      -0.74254970      -0.51755980
H        2.80589885       0.10751996      -1.01376959
H        2.39488908       1.22590953       1.80596925
H        2.95889889       2.09203921       0.37479986
H        5.05535782       0.85638964       0.32976986
H        4.81931808       1.15510954       2.05330914
H        4.11017842      -1.06013962       2.47645894
H        5.51318765      -1.36036941       0.01781999
H        3.16700885      -2.03976917      -0.10736996
H        2.23712905      -1.69316936       1.34834948
