16
Properties=species:S:1:pos:R:3 atomization_energy=-1609.6 smiles=C.C.C.N.C.C.O.H.H.H.H.H.H.H.H.H pbc="F F F"
C        1.00132960      -0.08543996       0.22983992
C        2.47560909       0.09620997      -0.06946997
C        3.25980871       1.10618957       0.80034971
N        3.90090851      -0.04494998       1.44726939
C        5.26025786      -0.07719997       1.91074930
C        3.42461862      -0.94821961       0.53952977
O        3.75357859      -2.08535912       0.29434990
H        0.60562977      -0.95976963      -0.29600989
H        0.43445983       0.79013969      -0.10356996
H        0.81570968      -0.21957992       1.30056955
H        2.65207897       0.23092991      -1.14309958
H        2.66632888       1.70434927       1.49644938
H        3.96204837       1.74461932       0.25567990
H        5.52232759      -1.09539951       2.20974910
H        5.36236774       0.60097975       2.76055896
H        5.92536773       0.23184991       1.10032956
