9
Properties=species:S:1:pos:R:3 atomization_energy=-1075.22 smiles=O.C.O.C.C.C.C.H.H pbc="F F F"
O        0.96427961      -0.00711000       0.00000000
C        2.30994908      -0.12849995       0.00000000
O        2.90411879      -1.19186953       0.00000000
C        3.00924882       1.12870951       0.00000000
C        3.59634846       2.17585924       0.00000000
C        4.34907809       3.50995856       0.00000000
C        4.94324805       4.55252824       0.00000000
H        0.68342975       0.92743962       0.00000000
H        5.47672780       5.47461781      -0.00000000
