15
Properties=species:S:1:pos:R:3 atomization_energy=-1480.18 smiles=O.C.C.O.C.C.C.H.H.H.H.H.H.H.H pbc="F F F"
O        0.87640967      -0.07879997       0.02402999
C        2.29825908      -0.07173997       0.00595000
C        2.81486897       1.36124941      -0.00365000
O        4.24014820       1.34673948      -0.02311999
C        4.77480836       2.66847900      -0.03446999
C        6.23982748       2.59252905      -0.05425998
C        7.43784684       2.53049896      -0.07052997
H        0.60185976      -1.01225958       0.02841999
H        2.64763896      -0.60978977      -0.88170963
H        2.67012898      -0.60609974       0.88667967
H        2.45463910       1.89142930       0.88613962
H        2.43031917       1.88824930      -0.88512967
H        4.44028827       3.20691882       0.85924969
H        4.41603822       3.20137863      -0.92208963
H        8.50219673       2.46660894      -0.08498997
