15
Properties=species:S:1:pos:R:3 atomization_energy=-1492.77 smiles=O.C.C.C.C.C.O.H.H.H.H.H.H.H.H pbc="F F F"
O        0.98058961       0.01181000      -0.13390994
C        2.40174896      -0.07363997       0.03001999
C        3.12423870      -0.81105966      -1.05286958
C        3.22815881       0.69338970      -0.97557963
C        4.51378833       1.40760948      -0.58303976
C        5.86687785       1.07432959      -1.16245957
O        5.10759796       2.18645917      -1.63812935
H        0.63166973       0.83486969       0.24961989
H        2.78690890      -0.17602993       1.03940960
H        2.53664903      -1.23609954      -1.85805925
H        3.98174837      -1.40799946      -0.76830969
H        2.65358893       1.23262949      -1.73013929
H        4.50885827       1.87394931       0.39879984
H        5.95634745       0.21332991      -1.81407930
H        6.74661715       1.28464946      -0.56709980
