14
Properties=species:S:1:pos:R:3 atomization_energy=-1379.28 smiles=C.C.C.C.O.N.O.H.H.H.H.H.H.H pbc="F F F"
C        0.86424963       0.12523995       0.11781995
C        2.37275912       0.03009999       0.06211998
C        3.17952877       1.06510954       0.88410968
C        3.92798844      -0.17687994       1.40712942
O        5.02644822      -0.41646984       1.85016923
N        2.88906875      -0.98554962       1.00838957
O        3.33444881      -2.16472916       0.36795985
H        0.40419985      -0.75887970      -0.33614987
H        0.51692979       1.00227962      -0.43780984
H        0.49455980       0.21018992       1.14528956
H        2.75249899      -0.11340995      -0.95830964
H        2.63591892       1.60733938       1.66310938
H        3.79067860       1.75170932       0.29466989
H        3.17416875      -2.82457893       1.06743957
