15
Properties=species:S:1:pos:R:3 atomization_energy=-1545.09 smiles=C.C.C.O.C.C.C.H.H.H.H.H.H.H.H pbc="F F F"
C        0.34870987       0.27964990      -0.01286000
C        1.66380935      -0.44584984      -0.00971000
C        1.71980935      -1.78700933      -0.06094998
O        2.74021904       0.41124983       0.04847998
C        4.05422851      -0.14681994       0.05244998
C        5.04052780       0.94266964       0.11264996
C        5.84850763       1.82848931       0.16133994
H        0.29706987       0.96277963      -0.86693967
H        0.23944990       0.86530967       0.90569964
H       -0.50379979      -0.40438982      -0.07889997
H        0.80927971      -2.37803916      -0.10513996
H        2.64627889      -2.34735896      -0.06070998
H        4.21465845      -0.72857969      -0.86268966
H        4.17995836      -0.79670970       0.92620963
H        6.56216754       2.61969907       0.20445992
