13
Properties=species:S:1:pos:R:3 atomization_energy=-1405.83 smiles=O.C.C.C.O.C.C.H.H.H.H.H.H pbc="F F F"
O        0.93186962      -0.04793998      -0.43024984
C        2.12660922       0.00345000      -0.15580994
C        2.81170877       1.27504952       0.26325990
C        4.26062841       1.19473955      -0.17358993
O        4.92561817       0.03724999       0.34848987
C        4.23139836      -1.12826956       0.15706993
C        2.93048892      -1.23419949      -0.13077995
H        2.32079907       2.12989912      -0.21148991
H        2.72739885       1.36205952       1.35158942
H        4.80610803       2.07472916       0.18223993
H        4.34582806       1.17958958      -1.26781948
H        4.87879810      -1.98563920       0.29374989
H        2.42374896      -2.17718903      -0.27847990
