15
Properties=species:S:1:pos:R:3 atomization_energy=-1524.47 smiles=O.C.C.O.C.C.C.H.H.H.H.H.H.H.H pbc="F F F"
O        0.55026981       0.86754968       0.08637997
C        1.80221923       1.12937957      -0.52895980
C        2.66388883       2.06803923       0.30701989
O        2.17165919       2.69249891       1.25090950
C        4.13713825       2.13904916      -0.07081997
C        4.71231802       3.50036872       0.18726993
C        5.29519767       4.26420849      -0.74462973
H        0.37696984       1.62568941       0.68209971
H        1.62369941       1.59039938      -1.50455944
H        2.32255908       0.17621993      -0.65971975
H        4.23997813       1.87369925      -1.12920950
H        4.67150797       1.38761942       0.52011979
H        4.63891839       3.87650858       1.20783958
H        5.39774812       3.94146848      -1.77623933
H        5.69001786       5.24351770      -0.48787980
