17
Properties=species:S:1:pos:R:3 atomization_energy=-1755.5 smiles=C.C.C.C.C.C.C.H.H.H.H.H.H.H.H.H.H pbc="F F F"
C        1.00095962      -0.05363998       0.00345000
C        2.51999896       0.00000000       0.00000000
C        3.00201878       1.36116943       0.00000000
C        3.39929870       2.48306901       0.00000000
C        3.86862852       3.80841850       0.00000000
C        5.34601769       4.07604835      -0.00582000
C        2.98527887       4.81859792       0.01139000
H        0.65720976      -1.09290963       0.00279000
H        0.58494978       0.44268983      -0.88021968
H        0.58909974       0.44018983       0.89045966
H        2.89530890      -0.53266977      -0.88099964
H        2.89938884      -0.53418981       0.87831969
H        5.92301752       3.14618874       0.04147998
H        5.63226782       4.68520805       0.85795964
H        5.63814764       4.60140834      -0.92097963
H        1.91395920       4.63823810       0.01766999
H        3.31281872       5.85331757       0.01367999
