17
Properties=species:S:1:pos:R:3 atomization_energy=-1619.42 smiles=C.C.C.N.C.C.H.H.H.H.H.H.H.H.H.H.H pbc="F F F"
C        3.09175887      -1.17303957      -0.45395983
C        2.46554915       0.06672997       0.16387994
C        3.45028853       1.19107948       0.26066989
N        3.68155846       2.07151913      -0.88340965
C        2.97405870       2.62442902       0.27008989
C        3.65854862       3.63933864       1.11761955
H        2.36148900      -1.98687928      -0.49880982
H        3.94951836      -1.51482945       0.13502995
H        3.44293863      -0.97094961      -1.47078944
H        2.10686922      -0.17439993       1.17098950
H        1.58855938       0.35970984      -0.42531982
H        4.32502840       0.93713962       0.85061964
H        3.03192886       1.86857932      -1.64495933
H        1.92026925       2.83521898       0.13836994
H        4.73122822       3.44255862       1.21927952
H        3.21904864       3.64703853       2.11984927
H        3.53536858       4.63725805       0.68537970
