17
Properties=species:S:1:pos:R:3 atomization_energy=-1648.52 smiles=C.C.C.O.C.C.O.H.H.H.H.H.H.H.H.H.H pbc="F F F"
C        0.71179973       2.27578898       0.28003988
C        2.19865913       2.40095916       0.18982992
C        3.01615892       1.34659944       0.06636997
O        4.37947845       1.31704943      -0.02351999
C        5.06616819       2.57501903      -0.02536999
C        6.56386725       2.28724911      -0.07896997
O        6.89615723       1.60737938      -1.28714944
H        0.36239986       2.66357897       1.24199955
H        0.37630987       1.23770954       0.18687992
H        0.24013990       2.85831890      -0.51774980
H        2.58578903       3.41371867       0.23228991
H        2.64319893       0.32711987       0.02734999
H        4.83765802       3.13512881       0.88889962
H        4.76732825       3.14651879      -0.91228965
H        6.86844723       1.64873937       0.75576971
H        7.13736724       3.21755862      -0.04243998
H        6.26954756       0.86193966      -1.35474949
