15
Properties=species:S:1:pos:R:3 atomization_energy=-1607.99 smiles=C.C.C.C.C.C.C.H.H.H.H.H.H.H.H pbc="F F F"
C        1.00013960      -0.05471998       0.00422000
C        2.51999896       0.00000000       0.00000000
C        3.00201878       1.36116943       0.00000000
C        3.39929870       2.48306901       0.00000000
C        3.85594837       3.77259857       0.00000000
C        4.25322855       4.89449816       0.00000000
C        4.73524837       6.25566733       0.00000000
H        0.65776974      -1.09337960       0.00275000
H        0.58536978       0.44151984      -0.88001964
H        0.58881978       0.43951983       0.89017963
H        2.89539898      -0.53270976      -0.88090968
H        2.89929876      -0.53412982       0.87826966
H        3.94157850       6.95477731      -0.28089989
H        5.55871780       6.38211759      -0.70956975
H        5.10008807       6.54452757       0.99046964
