15
Properties=species:S:1:pos:R:3 atomization_energy=-1515.29 smiles=C.C.C.O.C.C.O.H.H.H.H.H.H.H.H pbc="F F F"
C        0.61043977      -0.07925997       0.10879996
C        2.08295920      -0.36958984       0.04497998
C        2.55514895      -1.61655932       0.20875992
O        2.83622881       0.75771973      -0.19416993
C        4.24609817       0.60475974      -0.31369989
C        4.81150792       1.97819921      -0.56714976
O        5.71338777       2.20661918      -1.37019948
H        0.40353985       0.64673977       0.90184964
H        0.01736999      -0.97689964       0.31234989
H        0.26859991       0.34109988      -0.84263967
H        1.87788921      -2.44619913       0.39153986
H        3.60755853      -1.86782927       0.16776993
H        4.50004838      -0.04411998      -1.15831957
H        4.67678826       0.23429990       0.62231978
H        4.43320836       2.77726884       0.09305997
