15
Properties=species:S:1:pos:R:3 atomization_energy=-1477.23 smiles=C.O.C.O.C.C.C.H.H.H.H.H.H.H.H pbc="F F F"
C        2.68349901      -0.76743972       1.24924953
O        2.37149898      -0.08726997       0.04031999
C        2.84125878       1.25555946       0.05519998
O        4.25827820       1.34651945       0.01832999
C        4.77960820       0.85789965      -1.21386954
C        6.22325740       1.12111951      -1.26138945
C        7.40440689       1.33468953      -1.30828950
H        2.26242905      -1.77496935       1.19251954
H        2.23933922      -0.25413991       2.10757916
H        3.76654842      -0.85262965       1.37830940
H        2.48203899       1.76704930       0.95536960
H        2.41147911       1.78228935      -0.80435969
H        4.28887841       1.36027945      -2.05511924
H        4.59753808      -0.21934992      -1.29119948
H        8.45192679       1.52495941      -1.34758946
