11
Properties=species:S:1:pos:R:3 atomization_energy=-1243.97 smiles=O.C.O.C.C.C.C.H.H.H.H pbc="F F F"
O        0.99816959       0.09827996      -0.00000000
C        2.34236910      -0.03596999      -0.00000000
O        2.92785887      -1.10462953       0.00000000
C        3.05199878       1.21762952       0.00000000
C        3.64707866       2.24833912       0.00000000
C        4.35007833       3.46596865       0.00000000
C        3.71899861       4.64467810       0.00000000
H        0.73421974       1.03731961      -0.00000000
H        5.43638811       3.43264856      -0.00000000
H        2.63635899       4.72087810       0.00000000
H        4.28449845       5.57146759       0.00000000
