17
Properties=species:S:1:pos:R:3 atomization_energy=-1640.02 smiles=C.O.C.C.O.C.C.H.H.H.H.H.H.H.H.H.H pbc="F F F"
C        2.82858898      -0.92575966      -0.41286983
O        2.71289889       0.01871999       0.64646972
C        2.95625876       1.36981946       0.21605992
C        2.32021896       2.29474915       1.27234945
O        2.75584894       1.94834918       2.59130903
C        4.44319815       1.59195941       0.12390995
C        5.09058780       1.97018921      -0.98667962
H        2.59442886      -1.91483921      -0.01205000
H        3.84699843      -0.94790962      -0.80937969
H        2.11621911      -0.69695975      -1.21041954
H        2.46207909       1.55450942      -0.74642973
H        1.23173951       2.17700912       1.26075950
H        2.55844894       3.34656878       1.08909955
H        2.75880879       0.97018965       2.60335885
H        5.01088797       1.43005939       1.03820958
H        4.57141826       2.14452904      -1.92376921
H        6.16753761       2.11186917      -0.97614959
