15
Properties=species:S:1:pos:R:3 atomization_energy=-1574.87 smiles=O.C.C.C.C.C.C.H.H.H.H.H.H.H.H pbc="F F F"
O        0.55857977       1.21793952       1.02005958
C        1.54144938       1.16488952       0.29158990
C        2.77162898       1.91408928       0.60712976
C        3.83741843       1.85311924      -0.20404993
C        5.10878795       2.54928906       0.01759999
C        5.71728780       3.31489868      -1.12852960
C        5.13266808       4.05521840       0.03843998
H        1.55725945       0.55968978      -0.62984973
H        2.75869902       2.50758905       1.51332946
H        3.79308862       1.23335948      -1.09831961
H        5.79562758       2.03219923       0.68216973
H        5.18753801       3.36742875      -2.07322918
H        6.79680735       3.30107876      -1.23083957
H        5.81662759       4.53983800       0.72687974
H        4.21090830       4.60330839      -0.12110995
