16
Properties=species:S:1:pos:R:3 atomization_energy=-1584.58 smiles=C.C.C.C.N.C.O.H.H.H.H.H.H.H.H.H pbc="F F F"
C        0.92528963      -0.07572997      -0.07531997
C        2.38996912       0.15836994      -0.20916991
C        3.25160871      -0.58340980      -1.18071952
C        2.72540896      -1.62604937      -2.10486912
N        2.87624880       0.78234972      -1.40543943
C        3.81426855       1.79771928      -1.34832942
O        3.83684841       2.78014895      -2.07832917
H        0.45780983       0.77028967       0.43853983
H        0.74170969      -0.97565962       0.51953981
H        0.42457983      -0.19390993      -1.04118961
H        2.83610895       0.49620980       0.71933970
H        4.28969849      -0.75530971      -0.91978963
H        1.76669931      -1.34966943      -2.55451888
H        2.59406903      -2.57109906      -1.56898932
H        3.43653875      -1.79559932      -2.91970882
H        4.57069811       1.64374939      -0.55967975
