19
Properties=species:S:1:pos:R:3 atomization_energy=-1891.5 smiles=C.C.C.C.C.C.C.H.H.H.H.H.H.H.H.H.H.H.H pbc="F F F"
C        2.82270890      -0.90169963      -1.04040959
C        2.46899902       0.00206000       0.13544995
C        3.02738892       1.43281939       0.00000000
C        2.47569892       2.30585904       1.14626949
C        2.91182877       3.76599859       1.07153957
C        4.47138809       1.43281939       0.00000000
C        5.66154783       1.43281939       0.00000000
H        2.33397909      -1.87422927      -0.92462967
H        3.90115857      -1.07859954      -1.10104958
H        2.48892890      -0.46454982      -1.98580927
H        2.83147893      -0.46318982       1.06161955
H        1.37520951       0.04700998       0.21046991
H        2.66715905       1.85285921      -0.94824963
H        2.78069903       1.89615925       2.11921920
H        1.37891941       2.27693911       1.12236956
H        3.98746847       3.87081851       1.24246952
H        2.39861904       4.34955852       1.84142924
H        2.67135885       4.19954835       0.09755996
H        6.72718714       1.43278949       0.00018000
