19
Properties=species:S:1:pos:R:3 atomization_energy=-1839.91 smiles=C.C.C.O.C.C.C.H.H.H.H.H.H.H.H.H.H.H.H pbc="F F F"
C       -0.80862970       0.85131967      -1.34492951
C        0.00386000       0.35984986      -0.16049993
C        1.49268940       0.61806977      -0.35034987
O        2.18525909       0.11394996       0.78956967
C        3.59107853       0.31552989       0.68000971
C        4.22242824      -0.24395990       1.91448923
C        5.02233826       0.44324982       2.74099900
H       -1.87444930       0.66457972      -1.17865949
H       -0.51315980       0.33507986      -2.26428924
H       -0.67183973       1.92722918      -1.49621938
H       -0.16817993      -0.71244973      -0.01071000
H       -0.34016988       0.85180964       0.75676970
H        1.68083931       1.69383929      -0.44703983
H        1.85388923       0.10994995      -1.25230956
H        3.80581848       1.38457945       0.56877976
H        3.97301847      -0.21986991      -0.19636992
H        3.99604849      -1.28317951       2.13738907
H        5.26845812       1.48497941       2.56458891
H        5.44004792      -0.02992999       3.62502869
