15
Properties=species:S:1:pos:R:3 atomization_energy=-1524.16 smiles=C.C.O.C.C.C.O.H.H.H.H.H.H.H.H pbc="F F F"
C        1.91402922      -0.63810973       0.01306999
C        3.03944884       0.03870999      -0.74712970
O        4.12301830       0.25208990       0.15992993
C        5.25226805       0.84435968      -0.33724987
C        5.50081787       1.26166953      -1.58489944
C        6.80485722       1.87563930      -1.89375921
O        7.07011743       2.26610905      -3.02396882
H        1.05519961      -0.81669970      -0.63957975
H        1.59397932      -0.02097999       0.85880968
H        2.24958917      -1.59514939       0.42559985
H        2.68620905       0.99827960      -1.14248957
H        3.35957873      -0.60806976      -1.57234936
H        5.96969779       0.93570965       0.47280982
H        4.80564828       1.18206949      -2.40892904
H        7.52034704       1.96225919      -1.05916954
