13
Properties=species:S:1:pos:R:3 atomization_energy=-1320.71 smiles=C.C.C.C.N.O.N.H.H.H.H.H.H pbc="F F F"
C        0.99012962      -0.01082999       0.01935999
C        2.47442894       0.04240999       0.09172996
C        3.24338876       1.13287953       0.02585999
C        4.62196829       0.62416975       0.04859998
N        5.72307780       1.27735949      -0.01363000
O        4.57791831      -0.74558972       0.12046995
N        3.22604881      -1.09896962       0.23715990
H        0.55368978       0.99238963      -0.02398999
H        0.58152975      -0.51693979       0.89969965
H        0.67059971      -0.55762981      -0.87331968
H        2.95878888       2.16112915      -0.08441997
H        5.53182787       2.28032917      -0.06640998
H        2.95408896      -1.87205922      -0.36823984
