13
Properties=species:S:1:pos:R:3 atomization_energy=-1420.67 smiles=O.C.C.C.C.C.C.H.H.H.H.H.H pbc="F F F"
O        1.13566956      -0.63241972      -0.01430999
C        2.33410904      -0.38108984       0.01305000
C        2.82471898       1.01083958      -0.01035000
C        4.13895832       1.27257945       0.04098998
C        4.70991835       2.66041903       0.02337999
C        5.57787782       2.82226884      -1.15003957
C        6.28913755       2.96079895      -2.10817920
H        3.10082867      -1.17189954       0.05976998
H        2.06691913       1.78321932      -0.07437997
H        4.86097797       0.46100981       0.10827995
H        5.28655784       2.81901881       0.94148961
H        3.91631837       3.41619858       0.00683000
H        6.91868738       3.08481875      -2.95933871
