14
Properties=species:S:1:pos:R:3 atomization_energy=-1392.58 smiles=C.C.C.C.O.N.O.H.H.H.H.H.H.H pbc="F F F"
C        1.02857961      -0.02303999       0.03876998
C        2.54544908       0.00426000       0.06056998
C        3.10295885       1.18561954       0.83262969
C        4.38512815       0.60347979       1.31360952
O        5.38007787       1.22664948       1.64412941
N        4.22286830      -0.75603970       1.37666950
O        3.03460887      -1.16921952       0.73015973
H        0.67260972      -0.90347964      -0.50586979
H        0.62321972       0.87297966      -0.43994983
H        0.62115975      -0.09719996       1.05263958
H        2.93686886      -0.01064999      -0.96455963
H        2.49408907       1.45488941       1.70136936
H        3.26023868       2.05652914       0.19202992
H        4.98442800      -1.40875948       1.50593944
