15
Properties=species:S:1:pos:R:3 atomization_energy=-1541.95 smiles=C.O.C.C.C.C.C.H.H.H.H.H.H.H.H pbc="F F F"
C        1.00085963      -0.06146998       0.02438999
O        2.41979897      -0.00664000       0.02305999
C        2.89400889       1.33854944       0.00000000
C        4.33800832       1.33854944       0.00000000
C        5.52816805       1.33854944       0.00000000
C        6.93416740       1.33854944       0.00000000
C        7.63748678       2.47565905      -0.00057000
H        0.69640973      -1.11157962       0.04231998
H        0.59753978       0.40306985      -0.88092967
H        0.59808974       0.43348983       0.91361963
H        2.51473911       1.87079920       0.87969969
H        2.51470908       1.84030926      -0.89741965
H        7.44663705       0.38103985       0.00055000
H        7.15324695       3.44735871      -0.00104000
H        8.72210645       2.45412914      -0.00049000
