21
Properties=species:S:1:pos:R:3 atomization_energy=-1988.07 smiles=C.C.C.O.C.C.C.H.H.H.H.H.H.H.H.H.H.H.H.H.H pbc="F F F"
C        1.95948923      -1.22751953      -1.58519934
C        2.96793892      -0.18775993      -1.13229955
C        2.32774903       1.18399957      -0.95767963
O        3.34969870       2.10522920      -0.58075976
C        2.86419898       3.41456877      -0.27224991
C        3.99723848       4.15158825       0.43298984
C        2.45487907       4.16543846      -1.53491943
H        2.44470911      -2.20173909      -1.70301936
H        1.51654946      -0.95122960      -2.54826889
H        1.15097951      -1.33642948      -0.85447968
H        3.78569860      -0.12227996      -1.85926931
H        3.42763877      -0.50097980      -0.18786993
H        1.55732934       1.14499951      -0.17838993
H        1.86947926       1.50060944      -1.90017927
H        2.01452923       3.34085877       0.41693983
H        4.88573822       4.21143845      -0.20613992
H        4.29784828       3.61280853       1.33871951
H        3.69955851       5.16647794       0.71579975
H        3.25251861       4.13463841      -2.28610908
H        2.21637910       5.21119811      -1.31606950
H        1.56951934       3.71350864      -1.99309924
