11
Properties=species:S:1:pos:R:3 atomization_energy=-1239.16 smiles=O.C.O.C.C.C.C.H.H.H.H pbc="F F F"
O        1.23552953      -0.03161999      -0.79928966
C        2.33491903      -0.04642998      -0.01004000
O        2.69330890      -1.03713956       0.60370979
C        3.07099882       1.25053945       0.00000000
C        2.39454894       2.40832900       0.08667997
C        4.47699843       1.25053945       0.00000000
C        5.66715766       1.25053945       0.00000000
H        1.16408950       0.76374969      -1.35759944
H        1.31281948       2.44635910       0.16647993
H        2.91845878       3.35975864       0.13206995
H        6.73252748       1.23842957       0.00663000
