19
Properties=species:S:1:pos:R:3 atomization_energy=-1785.21 smiles=C.C.O.C.O.C.C.H.H.H.H.H.H.H.H.H.H.H.H pbc="F F F"
C        0.92545964       2.34105900       1.72135930
C        2.43601907       2.27839910       1.60801942
O        2.76563889       1.74949928       0.32610986
C        4.17234830       1.66410937       0.13414994
O        4.80085803       2.93951885       0.06982997
C        4.38986844       3.67603846      -1.07979963
C        5.13411797       4.99666809      -1.08949963
H        0.62341976       2.75131884       2.68888906
H        0.48884980       1.34357941       1.60792933
H        0.50563979       2.96520894       0.92573960
H        2.84173897       1.63050932       2.39308895
H        2.85356876       3.28468883       1.72070929
H        4.36404840       1.10984951      -0.79135971
H        4.62618827       1.09412952       0.95231961
H        3.31136882       3.86384836      -1.04006957
H        4.62354838       3.11101881      -1.98878918
H        4.92924820       5.56141774      -0.17427993
H        4.84192797       5.60246800      -1.95158924
H        6.21550780       4.82890818      -1.12535956
