17
Properties=species:S:1:pos:R:3 atomization_energy=-1729.77 smiles=O.C.C.C.C.C.C.H.H.H.H.H.H.H.H.H.H pbc="F F F"
O        0.94989963       0.10282996      -0.26377989
C        2.31629900      -0.01184999       0.11638995
C        3.08184882       1.26261956      -0.26176990
C        3.43961871       1.28449945      -1.74847936
C        4.27097853       0.05970998      -2.14028911
C        3.74417850      -1.21584958      -1.55103936
C        2.84673891      -1.24161954      -0.55338976
H        0.58744975       0.87529966       0.20000991
H        2.34892896      -0.14600994       1.20338947
H        2.48686912       2.15138917      -0.02282999
H        4.00779830       1.31807945       0.32365988
H        3.99647846       2.19790921      -1.98712921
H        2.51858893       1.30975945      -2.34556917
H        5.30769816       0.19216992      -1.80974930
H        4.28903839      -0.02388999      -3.23272878
H        4.09813844      -2.14963925      -1.98010923
H        2.46799903      -2.19510909      -0.19597991
