15
Properties=species:S:1:pos:R:3 atomization_energy=-1553.66 smiles=O.C.C.C.C.C.O.H.H.H.H.H.H.H.H pbc="F F F"
O        1.21598950       0.12675995       0.65533973
C        2.30806921       0.06665997       0.09442996
C        3.04367892      -1.24100953      -0.04212998
C        4.01003849      -1.29091952      -1.20665955
C        4.88860824      -0.05831998      -1.18083950
C        4.00379834       1.16687953      -1.27609947
O        2.94804890       1.18930951      -0.30135988
H        2.30656910      -2.04320920      -0.15669994
H        3.58050862      -1.40756948       0.89948965
H        4.62299830      -2.19684916      -1.14737949
H        3.45534853      -1.33371944      -2.15198921
H        5.45844792      -0.03464999      -0.24420990
H        5.60626761      -0.07545997      -2.00753916
H        4.60521803       2.06957921      -1.12701952
H        3.54096856       1.24372953      -2.26644919
