17
Properties=species:S:1:pos:R:3 atomization_energy=-1640.22 smiles=C.O.C.C.O.C.C.H.H.H.H.H.H.H.H.H.H pbc="F F F"
C        1.65987929       2.36822902      -1.33285950
O        3.04463879       2.10301915      -1.14559955
C        3.31251869       1.63373941       0.18808993
C        4.82811788       1.43124938       0.35860987
O        5.31812802       0.61914975      -0.70693970
C        5.59057765       2.72556894       0.32521989
C        6.35325745       3.18684865       1.32497945
H        1.50863938       2.68892893      -2.36646901
H        1.33341942       3.17126871      -0.66609976
H        1.06823958       1.46542942      -1.15546949
H        2.80300890       0.67092976       0.31311987
H        2.92708876       2.34745913       0.92580963
H        5.01625808       0.89914963       1.29741945
H        4.86542808       0.95424963      -1.50563941
H        5.50871785       3.31259868      -0.58716979
H        6.47919749       2.63439888       2.25143901
H        6.88315713       4.13033843       1.22781955
