11
Properties=species:S:1:pos:R:3 atomization_energy=-1272.84 smiles=O.C.C.C.O.C.C.H.H.H.H pbc="F F F"
O        2.60975899      -1.15282960       0.06822997
C        2.12414925      -0.02811999       0.00713000
C        2.91521884       1.17995950       0.00256000
C        2.41796906       2.46400892      -0.06398998
O        3.42901877       3.37099873      -0.04821998
C        4.58864794       2.66882898       0.02913999
C        4.32947851       1.31925947       0.06315997
H        1.03132958       0.11305995      -0.04881998
H        1.42317945       2.88433880      -0.12426995
H        5.49403773       3.26010873       0.05069998
H        5.06175795       0.52515979       0.12383995
