13
Properties=species:S:1:pos:R:3 atomization_energy=-1311.9 smiles=C.C.C.C.N.C.H.H.H.H.H.H.H pbc="F F F"
C        0.93791963      -0.02015999       0.00436000
C        2.13739916      -0.00624000       0.00256000
C        3.58528853       0.01086999      -0.00497000
C        4.26952813       1.02189958       0.94118966
N        5.28688789      -0.01214999       1.26021951
C        4.29373831      -1.04570962       0.87100965
H       -0.12840995      -0.03254999       0.00775000
H        3.99928843       0.05023998      -1.02258958
H        3.68024861       1.32754944       1.81471934
H        4.67056829       1.92033927       0.46207982
H        6.09772764       0.01836999       0.64079977
H        4.71531823      -1.89996920       0.33240987
H        3.71247862      -1.42359946       1.72133936
