19
Properties=species:S:1:pos:R:3 atomization_energy=-1837.51 smiles=C.O.C.C.C.C.C.H.H.H.H.H.H.H.H.H.H.H.H pbc="F F F"
C        1.26391944       0.92560965      -0.39537983
O        2.61990901       0.72123969      -0.02392999
C        3.41113858       1.88189926      -0.26849989
C        4.80922836       1.59534936       0.17241994
C        5.85004786       1.12057952      -0.81260966
C        5.93822754       2.51106895      -0.23748991
C        7.00788699       2.85470880       0.74251973
H        0.69898975       0.02453999      -0.14394995
H        1.18623952       1.09831961      -1.47266943
H        0.83629966       1.76973927       0.15379994
H        3.01425886       2.72340899       0.31132987
H        3.37195860       2.13667926      -1.33464954
H        4.83141787       1.17629956       1.17231954
H        5.56817769       1.01648960      -1.85439931
H        6.55444721       0.36812985      -0.47412980
H        5.71536756       3.34353879      -0.89589967
H        7.26478695       2.00668918       1.38569943
H        6.67970748       3.67934854       1.38211948
H        7.91371684       3.16972873       0.21643991
