17
Properties=species:S:1:pos:R:3 atomization_energy=-1611.45 smiles=C.C.C.C.N.C.H.H.H.H.H.H.H.H.H.H.H pbc="F F F"
C        2.40651903      -0.48678980      -1.49302941
C        2.48712902       0.01820000      -0.06228998
C        3.25191882       1.33105949      -0.00343000
C        2.54467897       2.60377899      -0.52089981
N        3.13654868       3.34690867       0.61668977
C        3.24288864       2.06637915       1.35529944
H        1.87243923      -1.44120941      -1.53107945
H        3.40678865      -0.63729975      -1.91368921
H        1.87767927       0.22602992      -2.13486904
H        2.99386873      -0.73121971       0.55525979
H        1.47437948       0.13735994       0.33892986
H        4.27193840       1.22599948      -0.40226984
H        1.44899937       2.57266907      -0.49275980
H        2.86020886       2.95117882      -1.50890937
H        4.04579837       3.75397854       0.39475986
H        4.14992842       1.95844924       1.95708918
H        2.37368897       1.86235923       1.99146918
