15
Properties=species:S:1:pos:R:3 atomization_energy=-1570.15 smiles=C.O.C.C.C.C.C.H.H.H.H.H.H.H.H pbc="F F F"
C        2.69757884      -1.18592953      -0.29337988
O        2.18980912       0.11110995      -0.01858999
C        3.20898870       1.09715952       0.00631000
C        2.72754898       2.26836918       0.81186970
C        2.68200899       3.36910877       0.04342999
C        3.09196881       3.02796878      -1.29571949
C        3.38732861       1.72035931      -1.34893943
H        1.85725924      -1.88517931      -0.32066988
H        3.38582875      -1.50265938       0.49644979
H        3.20150884      -1.21054949      -1.26426956
H        4.15142827       0.71416975       0.41462984
H        2.45408902       2.21336904       1.85333927
H        2.36434918       4.35302808       0.35247986
H        3.12333889       3.72595841      -2.11815916
H        3.70554860       1.18534955      -2.22915917
