17
Properties=species:S:1:pos:R:3 atomization_energy=-1646.05 smiles=C.O.C.C.O.C.C.H.H.H.H.H.H.H.H.H.H pbc="F F F"
C        2.64242907       0.46738981       1.54366939
O        2.39513914       1.67813937       0.84108966
C        3.44012867       2.27637918       0.15577993
C        3.02900888       3.63174852      -0.37829985
O        2.47946900       4.40798835       0.68521972
C        4.66774824       1.73688928       0.00503000
C        5.84837793       2.32404910      -0.70355972
H        1.71346928       0.17283992       2.04464913
H        3.40778863       0.61256977       2.31524905
H        2.92185894      -0.33974987       0.85694969
H        2.25391918       3.50844862      -1.14229956
H        3.84474840       4.20940845      -0.81527970
H        1.99481926       3.77176839       1.24107955
H        4.88379830       0.76085968       0.42657984
H        5.63974793       3.26319878      -1.21908951
H        6.21515756       1.61370936      -1.45359937
H        6.65622755       2.50324895       0.01513999
