15
Properties=species:S:1:pos:R:3 atomization_energy=-1542.95 smiles=O.C.C.C.C.C.C.H.H.H.H.H.H.H.H pbc="F F F"
O        1.11207962      -0.16957993       0.02296999
C        2.54089905      -0.06303998       0.01210999
C        3.20424865      -0.55281981      -1.24201949
C        3.11190878       0.92805966      -0.96761959
C        4.32452827       1.72044927      -0.59143974
C        4.93160801       2.10270917      -1.87087932
C        5.43553775       2.41953907      -2.91461880
H        0.71232975       0.50773979       0.59506978
H        3.06578869      -0.23536991       0.94652962
H        2.57482902      -0.96247961      -2.02378916
H        4.16675841      -1.04143960      -1.14917950
H        2.40209894       1.50715946      -1.55029940
H        5.02607780       1.13593956       0.01309999
H        4.03206853       2.60523898      -0.01738999
H        5.87996778       2.69766893      -3.84236841
