15
Properties=species:S:1:pos:R:3 atomization_energy=-1509.49 smiles=C.O.C.C.O.C.C.H.H.H.H.H.H.H.H pbc="F F F"
C        1.00664962       0.07974997      -0.02014000
O        2.42322916       0.04498998      -0.14252994
C        3.04615883       1.25984947      -0.13833995
C        4.35579817       1.43771941      -0.26203989
O        4.79925825       2.74070881      -0.20139993
C        3.57962849       3.51429866      -0.18180992
C        2.39528902       2.57433899       0.05417998
H        0.64211978      -0.95165964      -0.02603999
H        0.55428976       0.60307978      -0.86868965
H        0.70431975       0.54001980       0.92607962
H        5.12393792       0.69233975      -0.37687985
H        3.48849855       4.02779832      -1.14649949
H        3.65329862       4.27508851       0.60259978
H        1.59078935       2.77850879      -0.65763973
H        2.00764917       2.68227899       1.07228962
