19
Properties=species:S:1:pos:R:3 atomization_energy=-1873.28 smiles=O.C.C.C.C.C.C.H.H.H.H.H.H.H.H.H.H.H.H pbc="F F F"
O        1.01768962       0.01657999       0.08605997
C        2.44375908       0.01999999       0.03152998
C        2.91627888      -1.33198946      -0.50213980
C        2.54733904      -1.53235940      -1.97306919
C        3.04339883      -0.37920985      -2.83973899
C        2.55403894       0.96917963      -2.31815918
C        2.92555887       1.17345957      -0.84932966
H        0.73633970       0.87888964       0.43696983
H        2.80835882       0.15515994       1.05570957
H        2.46839898      -2.14299915       0.08446997
H        4.00460833      -1.40673944      -0.39103983
H        2.97597894      -2.47450893      -2.33326903
H        1.45833942      -1.62160935      -2.07140924
H        4.13980842      -0.38464986      -2.86079881
H        2.70343898      -0.52055979      -3.87160856
H        2.98624883       1.77594927      -2.92169896
H        1.46489940       1.03357961      -2.43640892
H        4.01449845       1.26565952      -0.76302973
H        2.48739902       2.11748922      -0.50541979
