15
Properties=species:S:1:pos:R:3 atomization_energy=-1542.13 smiles=C.C.C.O.C.C.C.H.H.H.H.H.H.H.H pbc="F F F"
C        0.10370996       0.29655988      -0.27289988
C        1.49898935      -0.04704998       0.13975994
C        2.56864892       0.67524973      -0.22417990
O        3.88746858       0.47851980       0.07617997
C        4.22013833      -0.64549975       0.89186962
C        5.67512780      -0.68132972       1.08997956
C        6.86667737      -0.71228969       1.25238954
H       -0.32967987      -0.53036977      -0.84372967
H        0.06404998       1.19754951      -0.89324962
H       -0.51566980       0.46493980       0.61337975
H        1.59721938      -0.93062966       0.76143972
H        2.48569906       1.56172937      -0.84599965
H        3.89869859      -1.57106941       0.39986985
H        3.72322844      -0.55883980       1.86532929
H        7.92183686      -0.73347971       1.39143946
