16
Properties=species:S:1:pos:R:3 atomization_energy=-1578.77 smiles=C.C.C.C.O.N.C.H.H.H.H.H.H.H.H.H pbc="F F F"
C        1.07448958      -0.17747993       0.08627997
C        2.55670911      -0.04217998      -0.00301000
C        3.34721878      -0.66926974      -1.13388961
C        2.66700891      -1.33828941      -2.26417922
O        2.53210909      -2.55630892      -2.27844906
N        3.13043873       0.78210969      -1.06255960
C        4.31718847       1.52063937      -0.63975972
H        0.66883976       0.59108976       0.75186968
H        0.81186970      -1.15581960       0.50028980
H        0.58026979      -0.07275997      -0.88493966
H        3.01532874      -0.02481999       0.97963964
H        4.33412847      -1.05495958      -0.90264965
H        2.30425901      -0.69985973      -3.08577888
H        4.01539852       2.47242896      -0.19108993
H        4.93715828       1.74697938      -1.51319939
H        4.94405803       0.99100963       0.08781997
