15
Properties=species:S:1:pos:R:3 atomization_energy=-1535.52 smiles=C.C.C.O.C.C.C.H.H.H.H.H.H.H.H pbc="F F F"
C        1.07579955      -0.29198988       1.76879934
C        1.67015940      -0.16746994       0.57467977
C        2.53163899       0.98430960       0.16461993
O        3.76457847       0.44511981      -0.30206988
C        4.70664813       1.45703940      -0.65657974
C        4.38627828       2.05331924      -1.96011917
C        4.12374829       2.54154905      -3.02428877
H        0.46728982      -1.16226956       1.99499917
H        1.18414959       0.46023982       2.54349907
H        1.53495942      -0.94995962      -0.16847994
H        2.71362888       1.66171929       1.00687962
H        2.03239921       1.53557940      -0.63916977
H        5.68710798       0.97230961      -0.71423971
H        4.76933832       2.21532915       0.13195995
H        3.88825838       2.96923893      -3.97243836
