17
Properties=species:S:1:pos:R:3 atomization_energy=-1703.97 smiles=C.O.C.C.C.C.C.H.H.H.H.H.H.H.H.H.H pbc="F F F"
C        2.07522916      -0.54498978      -0.34669987
O        3.36171875       0.05840998      -0.30701989
C        3.43271871       1.40116948      -0.02089999
C        2.39235896       2.23106907       0.17249994
C        4.80508811       1.88393923       0.04854998
C        5.64922801       1.65542930      -1.17446953
C        5.29428776       2.48603895       1.14570957
H        2.20853916      -1.60787937      -0.56907978
H        1.46203947      -0.10991996      -1.14238952
H        1.57381932      -0.46475983       0.62346978
H        1.36149947       1.90757926       0.12213995
H        2.55313888       3.28514883       0.37816987
H        5.76530796       0.58597980      -1.37881949
H        6.65332725       2.07864913      -1.06055963
H        5.19165808       2.12961928      -2.04963923
H        4.68764810       2.63091898       2.03441925
H        6.32130726       2.83350893       1.18924958
