15
Properties=species:S:1:pos:R:3 atomization_energy=-1551.72 smiles=O.C.C.C.C.C.C.H.H.H.H.H.H.H.H pbc="F F F"
O        2.53733891      -0.53176977      -1.46836946
C        2.28234908      -0.14480994      -0.12191995
C        2.91968889       1.21405954       0.16631994
C        4.42262810       1.13888956       0.18826993
C        5.17688812       1.45914940       1.24909952
C        6.59322750       1.37328940       1.20096948
C        7.79102682       1.30381945       1.16175960
H        2.16251924      -1.42155949      -1.58412932
H        2.67069900      -0.91823963       0.54929979
H        1.19720949      -0.08020997       0.00771000
H        2.54238907       1.58928937       1.12476960
H        2.62772901       1.93148929      -0.60964979
H        4.89513807       0.80739965      -0.73563974
H        4.72318794       1.79675928       2.17586908
H        8.85371637       1.24261953       1.12212959
