15
Properties=species:S:1:pos:R:3 atomization_energy=-1550.61 smiles=C.C.O.C.C.C.C.H.H.H.H.H.H.H.H pbc="F F F"
C        1.30308946       0.36551987      -0.68730972
C        2.53819911      -0.44355984      -0.33720988
O        3.66946851       0.42510982      -0.39390984
C        4.89359784      -0.11901996      -0.11502996
C        5.20524814      -1.37771945       0.22591992
C        6.55290749      -1.75540925       0.47522981
C        7.68840673      -2.08073919       0.68445970
H        0.40776984      -0.26218990      -0.66912975
H        1.40290943       0.81097966      -1.68259933
H        1.17027957       1.19107948       0.01962999
H        2.65310899      -1.25948952      -1.06025960
H        2.42791899      -0.85467965       0.67289971
H        5.64709783       0.65718976      -0.21141992
H        4.45091848      -2.14904904       0.32303987
H        8.69734670      -2.36800899       0.86891965
