17
Properties=species:S:1:pos:R:3 atomization_energy=-1723.27 smiles=C.C.C.O.C.C.C.H.H.H.H.H.H.H.H.H.H pbc="F F F"
C        1.29155943      -0.56919977      -0.03691999
C        2.78608883      -0.30299988      -0.03134999
C        3.11469881       1.18009954       0.01522999
O        2.24546911       2.04752924       0.11141996
C        4.59047836       1.54634940      -0.00298000
C        5.08996808       1.68357938       1.40323948
C        6.06148783       0.93307961       1.93805924
H        1.09616962      -1.64496929      -0.07995997
H        0.81171969      -0.09908996      -0.90165963
H        0.81786970      -0.17145993       0.86657966
H        3.23303864      -0.72329972      -0.93837964
H        3.24114882      -0.78472971       0.84014966
H        4.70434839       2.49607896      -0.53635980
H        5.14351781       0.79109968      -0.57130976
H        4.62112802       2.45615915       2.01193918
H        6.56669739       0.15535994       1.37334945
H        6.37870758       1.08986954       2.96548878
