13
Properties=species:S:1:pos:R:3 atomization_energy=-1363.76 smiles=O.C.C.C.O.C.C.H.H.H.H.H.H pbc="F F F"
O        1.08826951      -0.02227999      -0.67783973
C        2.37190902      -0.18319992      -0.08499997
C        3.14843878       1.11106953      -0.23851991
C        4.52007844       0.99764960       0.37179986
O        4.95570817      -0.00126000       0.92888965
C        5.35408775       2.17755920       0.27322990
C        6.04875771       3.15428883       0.19311993
H        0.61589978      -0.86564963      -0.56273977
H        2.88415888      -1.01262962      -0.58388980
H        2.23771901      -0.44033984       0.97110965
H        2.60485897       1.93150922       0.24414991
H        3.24516871       1.36353945      -1.30093947
H        6.67229752       4.01575834       0.12687995
