21
Properties=species:S:1:pos:R:3 atomization_energy=-2047.12 smiles=C.C.C.C.C.C.C.H.H.H.H.H.H.H.H.H.H.H.H.H.H pbc="F F F"
C        2.85235884      -1.01954961      -0.36617987
C        2.34283920       0.27891987       0.24083990
C        3.39226875       1.34974942       0.20054992
C        3.47645857       2.29029904      -0.97368961
C        3.06570870       2.82551886       0.38249984
C        1.63755933       3.27045861       0.56634975
C        4.06345828       3.66068864       1.14410954
H        2.07683916      -1.79055925      -0.32423986
H        3.73038859      -1.38788941       0.17407993
H        3.13843864      -0.87589964      -1.41299940
H        2.05623921       0.10139996       1.28422946
H        1.43719948       0.58183980      -0.29658988
H        4.32482855       0.99804960       0.63264972
H        2.72605897       2.21626908      -1.75330935
H        4.46341846       2.53615901      -1.35314945
H        0.95150963       2.78509893      -0.13459994
H        1.55131944       4.35058804       0.40600986
H        1.30067944       3.04815881       1.58408933
H        5.09204779       3.31640863       0.98835958
H        3.85377858       3.61691851       2.21823903
H        4.00975840       4.70683839       0.82409969
