11
Properties=species:S:1:pos:R:3 atomization_energy=-1207.02 smiles=C.C.C.C.C.N.H.H.H.H.H pbc="F F F"
C        0.99999962       0.00000000       0.00000000
C        2.44399905       0.00000000       0.00000000
C        3.63415853       0.00000000       0.00000000
C        5.07815797       0.00000000       0.00000000
C        5.56017779       1.36116943       0.00000000
N        5.94438745       2.44615901       0.00000000
H        0.60625978       1.02013963       0.01165000
H        0.60616977      -0.52014979       0.87761965
H        0.60640973      -0.49962980      -0.88875964
H        5.45631774      -0.53381977      -0.87859965
H        5.45631774      -0.53382980       0.87860968
