19
Properties=species:S:1:pos:R:3 atomization_energy=-1786.48 smiles=C.O.C.C.C.C.O.H.H.H.H.H.H.H.H.H.H.H.H pbc="F F F"
C        3.14566869      -1.11502962       0.26639989
O        4.04824851      -0.01738999       0.30855987
C        3.44252859       1.17825954      -0.18703993
C        4.47814805       2.29615918      -0.11838995
C        3.91401837       3.63026860      -0.60143975
C        4.93861827       4.74974833      -0.47725981
O        3.51133857       3.52369851      -1.96458922
H        3.66296845      -2.00054920       0.64525972
H        2.82657891      -1.31018942      -0.76203970
H        2.27588916      -0.91949964       0.90085962
H        2.57176900       1.42790940       0.43013982
H        3.11550880       1.01702958      -1.22038953
H        5.34295792       2.00471922      -0.72796969
H        4.84501802       2.38787906       0.91148964
H        3.02486888       3.89255836      -0.01784999
H        5.82986792       4.53695839      -1.07800960
H        5.24456790       4.89500787       0.56321977
H        4.52289799       5.69060781      -0.85408964
H        4.30726831       3.35393862      -2.49868907
