16
Properties=species:S:1:pos:R:3 atomization_energy=-1604.52 smiles=C.N.C.C.C.O.C.H.H.H.H.H.H.H.H.H pbc="F F F"
C        1.04640959       0.00888000      -0.02725999
N        2.49669894      -0.02004999       0.08627997
C        3.02169885       1.07882955       0.90584965
C        4.45811800       0.67555973       1.21497954
C        4.29846851      -0.81156968       1.32628942
O        5.12241788      -1.55773938       1.84021930
C        2.98379894      -1.25588950       0.72017971
H        0.69574976      -0.82099967      -0.65132974
H        0.71970975       0.93477962      -0.51361980
H        0.54846980      -0.06019997       0.94705964
H        2.45676903       1.18347952       1.84165923
H        2.98607876       2.03488921       0.37344985
H        5.13640813       0.90410964       0.38898986
H        4.81182788       1.10849954       2.15394906
H        3.14977866      -2.03941919      -0.02307999
H        2.33378908      -1.60334939       1.53155939
