14
Properties=species:S:1:pos:R:3 atomization_energy=-1468.02 smiles=C.C.C.C.O.C.N.H.H.H.H.H.H.H pbc="F F F"
C        0.86391964      -0.45648983      -0.04234998
C        2.33475904      -0.07762997       0.01487000
C        2.52694891       1.43483943      -0.05987998
C        3.98767841       1.82813933      -0.00807000
O        4.91827785       1.03707957       0.09720996
C        4.23833848       3.25724881      -0.09155997
N        4.39756808       4.40568810      -0.16109993
H        0.75013970      -1.54371936       0.01162999
H        0.40637984      -0.11302996      -0.97563962
H        0.31235988      -0.01525999       0.79394970
H        2.86595899      -0.56349979      -0.81234970
H        2.77229892      -0.46493980       0.94282962
H        2.01138922       1.91699929       0.77891971
H        2.10073922       1.81733929      -0.99471959
