18
Properties=species:S:1:pos:R:3 atomization_energy=-1725.0 smiles=C.C.C.C.N.C.O.H.H.H.H.H.H.H.H.H.H.H pbc="F F F"
C        1.96058926       0.64859977      -2.84304882
C        3.24924865       0.65906975      -2.08344923
C        3.40341876       1.25106947      -0.88634963
C        4.64090827       1.31642945      -0.02880999
N        5.78223787       0.55307977      -0.55842976
C        5.09165819       2.77684896       0.20116993
O        6.29687756       2.79728880       0.96984963
H        2.09200919       1.15125960      -3.80595852
H        1.15453952       1.15319952      -2.30088912
H        1.64916935      -0.38317984      -3.03257886
H        4.07713842       0.14646994      -2.56519905
H        2.53761899       1.74783932      -0.44669982
H        4.40378804       0.87722968       0.94797964
H        6.00699739       0.90328963      -1.48944946
H        5.48953765      -0.41654982      -0.67805976
H        4.33073815       3.34518878       0.74536969
H        5.29079802       3.28750863      -0.74766969
H        6.77724714       1.99057921       0.68773976
