13
Properties=species:S:1:pos:R:3 atomization_energy=-1343.04 smiles=C.N.N.C.O.C.C.H.H.H.H.H.H pbc="F F F"
C        1.01429961       0.01990999       0.04301998
N        2.42762906       0.00625000      -0.29023989
N        3.19772867       1.10219958       0.10230996
C        4.52611824       0.70034969       0.13923995
O        5.51834782       1.39864945       0.20147991
C        4.52257803      -0.77719970       0.04725998
C        3.24220861      -1.09215957      -0.19421992
H        0.60508978       1.03291958      -0.02694999
H        0.84944965      -0.34952985       1.06346964
H        0.45947983      -0.61614978      -0.65414973
H        2.97317883       2.03743914      -0.21802991
H        5.38732785      -1.40435945       0.16119993
H        2.82636897      -2.08584915      -0.29088987
