14
Properties=species:S:1:pos:R:3 atomization_energy=-1437.02 smiles=C.C.O.N.C.C.C.H.H.H.H.H.H.H pbc="F F F"
C        0.99885959       0.03922998       0.09803996
C        2.50275893      -0.03155999      -0.11613996
O        2.78069903      -1.14273950      -0.99971960
N        3.38070870      -0.66484971      -2.20154909
C        3.53316850       0.60983973      -2.07236923
C        3.06382883       1.15524958      -0.80727967
C        3.17242867       2.43367895      -0.43907982
H        0.72181974       0.87171965       0.75260971
H        0.63662974      -0.89212965       0.54767976
H        0.46683982       0.15100994      -0.85433963
H        3.02298876      -0.22023991       0.82871969
H        3.97837849       1.26592952      -2.83335880
H        2.81074891       2.76922881       0.52786980
H        3.62957847       3.17604887      -1.08600963
