18
Properties=species:S:1:pos:R:3 atomization_energy=-1698.22 smiles=C.C.C.C.O.N.C.H.H.H.H.H.H.H.H.H.H.H pbc="F F F"
C        0.83489966      -0.89914963      -0.29569987
C        2.36222909      -0.78023966      -0.22882991
C        2.89193876      -1.71422930       0.86527965
C        2.95458883      -1.13306954      -1.59801940
O        2.63035906       0.59521979       0.10169996
N        4.01152851       0.83115967       0.19645993
C        4.19608838       2.07282924       0.48780982
H        0.42304985      -0.21421991      -1.04606957
H        0.37988985      -0.61850977       0.66133972
H        0.51692979      -1.91700926      -0.54474981
H        2.51728892      -1.41188940       1.84986921
H        3.98562847      -1.68378932       0.92375962
H        2.59561910      -2.75285882       0.68331973
H        2.62029886      -0.42142982      -2.36167901
H        2.66579898      -2.14205922      -1.91151928
H        4.04927853      -1.08694957      -1.58543943
H        5.21821796       2.46275912       0.60777977
H        3.36686857       2.78693893       0.62728977
