16
Properties=species:S:1:pos:R:3 atomization_energy=-1511.09 smiles=C.C.O.C.C.N.O.H.H.H.H.H.H.H.H.H pbc="F F F"
C        1.03004962      -0.14863994      -0.13504994
C        2.53042907       0.04247999       0.03588999
O        3.23364878      -0.74138973      -0.91650965
C        2.88975887       1.53181941      -0.03752998
C        2.92347890       2.19929905      -1.39360951
N        3.13230876       2.16063913       1.07706954
O        3.44304865       3.50576860       0.84935969
H        0.46868983       0.42571983       0.60858975
H        0.76583969      -1.20677953      -0.03729998
H        0.69948975       0.16930994      -1.12989950
H        2.82261882      -0.32553987       1.02615962
H        2.81531888      -0.62662973      -1.78564926
H        2.53777897       1.53564942      -2.17026909
H        3.95537850       2.46558902      -1.63820933
H        2.30569906       3.10153873      -1.38128943
H        3.63540858       3.83134860       1.74878935
