18
Properties=species:S:1:pos:R:3 atomization_energy=-1747.9 smiles=C.C.C.N.C.C.C.H.H.H.H.H.H.H.H.H.H.H pbc="F F F"
C       -1.65169934       0.63388974       0.22721991
C       -1.48055945      -0.85357968      -0.28375991
C       -0.13479995      -0.75765967       0.42371982
N        1.07711962      -1.24874954      -0.20929991
C        2.04513916      -0.17523993       0.14024994
C        1.19853953       1.02984959       0.62081974
C       -0.12072995       0.73540973      -0.05087998
H       -2.29171916       1.26413948      -0.39494983
H       -1.94265923       0.74130968       1.27754950
H       -1.45259938      -0.96376965      -1.37467949
H       -2.19113916      -1.57187939       0.13313995
H       -0.18801992      -0.93796966       1.50699935
H        1.01699962      -1.31867949      -1.22507948
H        2.73568894      -0.50421980       0.92341961
H        2.62995886       0.09028997      -0.74751968
H        1.11125954       1.04724960       1.71352933
H        1.63043930       1.97949922       0.29082988
H        0.01887999       0.90974963      -1.13530961
