15
Properties=species:S:1:pos:R:3 atomization_energy=-1441.53 smiles=C.N.C.C.O.N.C.H.H.H.H.H.H.H.H pbc="F F F"
C        0.96105961      -0.06024998      -0.08511997
N        2.40325916       0.03602998      -0.17336993
C        3.02843887       1.28568945       0.23703991
C        4.50844799       1.20271952      -0.11259995
O        5.06898825       0.06030998       0.54397976
N        4.46272808      -1.16466949       0.15079994
C        3.19974883      -1.08357956      -0.12813995
H        0.48564979       0.90132965      -0.30590989
H        0.65922973      -0.37171987       0.92032962
H        0.57843976      -0.79068971      -0.80591966
H        2.56815890       2.13799921      -0.27373989
H        2.90163888       1.41236945       1.31842943
H        5.03644811       2.09243916       0.24337990
H        4.67429826       1.11413952      -1.19289955
H        2.65880890      -2.01020920      -0.38660984
