14
Properties=species:S:1:pos:R:3 atomization_energy=-1374.99 smiles=C.C.C.O.N.C.O.H.H.H.H.H.H.H pbc="F F F"
C        0.95913962      -0.02320999       0.25324990
C        2.45384905      -0.04626998      -0.01972999
C        2.91402885       1.20926954      -0.72919974
O        4.31596819       1.05883961      -0.94490965
N        4.61390832      -0.05670998      -1.75991930
C        3.83313838      -1.07799963      -1.63327942
O        2.74183901      -1.19027959      -0.83839968
H        0.68112975       0.82869969       0.88185964
H        0.64891973      -0.94524961       0.75770970
H        0.38940983       0.02843999      -0.68180972
H        2.99767893      -0.18108993       0.92216962
H        2.75348889       2.09964914      -0.11339995
H        2.41834908       1.35645941      -1.69647931
H        3.98425831      -2.00162917      -2.21140918
