12
Properties=species:S:1:pos:R:3 atomization_energy=-1328.29 smiles=C.C.C.C.N.C.O.H.H.H.H.H pbc="F F F"
C        1.12335958      -0.10091996      -0.37706986
C        2.34962918       0.28288990       0.01407999
C        3.59912865      -0.53690982      -0.14212995
C        4.38923812      -0.06776997      -1.28932945
N        4.99984797       0.27315988      -2.21779922
C        2.48939899       1.59468938       0.69529973
O        3.55430856       1.96589920       1.17162954
H        0.24288990       0.51905981      -0.23152990
H        0.96396962      -1.05669959      -0.86936968
H        3.33851866      -1.59182934      -0.29340987
H        4.19802831      -0.50558980       0.77519972
H        1.57545935       2.20846902       0.76454970
