17
Properties=species:S:1:pos:R:3 atomization_energy=-1605.15 smiles=C.C.C.O.N.C.N.H.H.H.H.H.H.H.H.H.H pbc="F F F"
C        1.47354944      -0.30894988       0.35368985
C        2.96894874      -0.19191992       0.10840996
C        3.41230864       1.24951953      -0.07047997
O        2.62121886       2.19454916      -0.04737998
N        4.78234801       1.44776939      -0.26924988
C        5.80492750       0.41543982      -0.17692993
N        5.24465774       2.79176880      -0.35032987
H        1.18715952      -1.35923947       0.47172981
H        0.90299964       0.10856995      -0.48290983
H        1.18043956       0.22941991       1.26161944
H        3.22422875      -0.75293969      -0.79645970
H        3.50360865      -0.62682976       0.95934962
H        5.51591787      -0.44519983      -0.78469968
H        5.89472765       0.10354996       0.86720967
H        6.76629747       0.79616971      -0.53456976
H        4.64353807       3.34083859       0.27806990
H        4.97609804       3.13598876      -1.27706944
