18
Properties=species:S:1:pos:R:3 atomization_energy=-1709.38 smiles=C.C.N.C.C.C.O.H.H.H.H.H.H.H.H.H.H.H pbc="F F F"
C        1.14874953      -0.18630992      -0.36798984
C        2.64372908      -0.20571992      -0.09065996
N        3.14187868       1.16149957       0.05430998
C        4.58921821       1.20453946       0.29964989
C        5.51626761       1.46566938      -0.85378968
C        5.31538770       2.52294896       0.19058993
O        6.39075741       2.73038897       1.11979956
H        0.76989970      -1.20924948      -0.46206982
H        0.92611962       0.34328986      -1.30042951
H        0.59941978       0.30213987       0.44420981
H        3.15586868      -0.70992970      -0.91775963
H        2.83310899      -0.77790970       0.82405970
H        2.64284895       1.62482934       0.81509967
H        4.94256827       0.53667982       1.08299957
H        5.08207818       1.64201941      -1.83132929
H        6.45525731       0.92747962      -0.88316968
H        4.73237835       3.39537873      -0.08906997
H        7.03762726       2.00416927       1.10586962
