15
Properties=species:S:1:pos:R:3 atomization_energy=-1468.85 smiles=C.C.N.N.C.C.O.H.H.H.H.H.H.H.H pbc="F F F"
C        1.42359946       0.81236970       0.44802982
C        2.88604884       0.54185980       0.26255990
N        3.70858843       1.52568940       0.11138995
N        5.05260791       1.27046946      -0.05917998
C        5.63123780      -0.06010998      -0.08299997
C        5.87294793       2.38116907      -0.21465992
O        7.08838722       2.37402911      -0.37791987
H        1.10527954       0.39037986       1.40478942
H        0.86853964       0.31884988      -0.35402987
H        1.21648949       1.88526926       0.43223982
H        3.18210885      -0.51974981       0.26549989
H        5.19067803      -0.62803976      -0.90755964
H        5.43012777      -0.55575978       0.87115966
H        6.71414717      -0.02248999      -0.23029992
H        5.30121779       3.32423873      -0.17598993
