14
Properties=species:S:1:pos:R:3 atomization_energy=-1427.51 smiles=C.C.N.C.C.O.O.H.H.H.H.H.H.H pbc="F F F"
C        1.02774963      -0.06181998       0.05593998
C        2.53307905      -0.11577996      -0.04745998
N        3.10719877      -1.38350944      -0.12922994
C        3.24590879       1.02574958      -0.04012998
C        4.71926823       1.12923953      -0.05059998
O        5.35292803      -0.01762000       0.26593989
O        5.29439778       2.17816908      -0.28954990
H        0.65092973       0.96454960       0.11818995
H        0.69045976      -0.59637975       0.95027964
H        0.57232974      -0.53179979      -0.82211965
H        2.39477906      -2.11612915      -0.05263998
H        3.54415854      -1.50947939      -1.05165959
H        2.75550880       1.99399918      -0.00891000
H        4.69453825      -0.72761970       0.45951982
