17
Properties=species:S:1:pos:R:3 atomization_energy=-1603.51 smiles=C.C.C.N.N.C.O.H.H.H.H.H.H.H.H.H.H pbc="F F F"
C        0.79900970       0.02623999      -0.05188998
C        2.29936908      -0.20127993       0.03262999
C        3.06421868       1.12131961       0.03349998
N        4.50587825       0.91828965       0.10274996
N        5.08870794       0.73050971       1.38056941
C        5.28139767       0.66891975      -1.02169960
O        6.47038760       0.36877986      -1.00531958
H        0.26875988      -0.93145964      -0.05002998
H        0.53392979       0.55927981      -0.97089965
H        0.44245983       0.61342978       0.80078971
H        2.62053908      -0.81972969      -0.81354966
H        2.52842909      -0.76786969       0.94258966
H        2.76011889       1.74989935       0.87900969
H        2.84442882       1.67411935      -0.88783964
H        5.65477779       1.56154934       1.57385944
H        5.79168768      -0.01250000       1.27686946
H        4.71417820       0.77750969      -1.96101924
