12
Properties=species:S:1:pos:R:3 atomization_energy=-1266.38 smiles=C.C.C.N.O.C.O.H.H.H.H.H pbc="F F F"
C        0.97583960       0.02351999       0.02222999
C        2.44690893       0.06178998      -0.06846997
C        3.30328867       1.08041961      -0.13024995
N        4.60076842       0.66990971      -0.21102991
O        4.61203804      -0.72787972      -0.06322997
C        3.29753880      -1.14698952      -0.03244999
O        2.90454876      -2.29607919       0.05468998
H        0.55243980       1.03272957       0.04878998
H        0.65799974      -0.49866980       0.92994962
H        0.55219977      -0.49706980      -0.84211968
H        3.07538888       2.13790912      -0.11644996
H        5.24411775       1.15109949       0.41734985
