20
Properties=species:S:1:pos:R:3 atomization_energy=-1867.98 smiles=C.C.C.C.O.C.N.H.H.H.H.H.H.H.H.H.H.H.H.H pbc="F F F"
C        0.96320960      -0.82092965       0.27249990
C        2.41061916      -0.39370984      -0.00031000
C        3.17751870      -1.56007938      -0.62477976
C        2.45102900       0.87306968      -0.87728967
O        1.74895929       1.92957927      -0.20638992
C        3.87878839       1.37658951      -1.17753951
N        3.81531850       2.69324884      -1.83320929
H        0.40783983      -0.03557998       0.79553970
H        0.93448963      -1.71653927       0.90284963
H        0.43497982      -1.04733961      -0.66026971
H        2.86330875      -0.16162993       0.97237963
H        2.80318881      -1.78874928      -1.62859930
H        3.07771891      -2.46379898      -0.01339999
H        4.24690815      -1.33991947      -0.69973974
H        1.92489928       0.69051975      -1.82289929
H        2.13003916       2.75193882      -0.58161976
H        4.42160818       0.67582972      -1.81846924
H        4.43527848       1.49631943      -0.24170991
H        3.39191876       2.58727905      -2.75644899
H        4.76709812       3.02148891      -2.00172923
