18
Properties=species:S:1:pos:R:3 atomization_energy=-1705.63 smiles=C.C.C.C.C.N.O.H.H.H.H.H.H.H.H.H.H.H pbc="F F F"
C        1.37526944      -0.82102970       0.12578994
C        2.86165876      -0.50309979       0.17852993
C        3.11987867       0.99371960      -0.00887000
C        4.60672798       1.33555944      -0.03938998
C        5.26013775       1.06137958       1.28753954
N        6.22992752       0.21002992       1.38168951
O        6.64755745       0.14558995       2.71397886
H        1.20971957      -1.88883925       0.30261987
H        0.95552964      -0.56988977      -0.85310965
H        0.82581965      -0.26097989       0.88987968
H        3.37970871      -1.07348958      -0.60044979
H        3.25847868      -0.83612965       1.14386957
H        2.62617894       1.55222935       0.79574971
H        2.66754890       1.32407951      -0.95247965
H        4.72689822       2.40575901      -0.24243990
H        5.11925819       0.78026969      -0.83134967
H        4.87897827       1.61398932       2.16470923
H        7.37014686      -0.50908979       2.67414888
