13
Properties=species:S:1:pos:R:3 atomization_energy=-1383.16 smiles=C.C.C.N.C.O.N.H.H.H.H.H.H pbc="F F F"
C        0.97641964      -0.00131000      -0.00805000
C        2.45610893       0.05197998      -0.00068000
C        3.28113878       1.11078957       0.00506000
N        4.57567812       0.65755974       0.01104000
C        4.57855823      -0.74309972       0.00921000
O        5.54019769      -1.48751938       0.01326000
N        3.22196861      -1.09063953       0.00171000
H        0.54216979       1.00379960      -0.00462000
H        0.60620976      -0.53136982       0.87529966
H        0.61478978      -0.52177978      -0.90059965
H        3.04400872       2.16353917       0.00537000
H        5.41719781       1.21288949       0.01615999
H        2.89454888      -2.04404921      -0.00107000
