21
Properties=species:S:1:pos:R:3 atomization_energy=-2046.26 smiles=C.C.C.C.C.C.C.H.H.H.H.H.H.H.H.H.H.H.H.H.H pbc="F F F"
C        2.24812918      -0.50681979      -1.45677938
C        2.41929910       0.01448000      -0.03916998
C        3.27249870       1.27504952      -0.03232999
C        2.62832905       2.57612903      -0.57707975
C        3.31860871       3.34419863       0.57782975
C        4.64980799       3.99773836       0.24229991
C        3.39407872       1.99640920       1.33528945
H        1.65175940      -1.42437941      -1.45561941
H        3.21822881      -0.72933971      -1.91325924
H        1.74097931       0.22876991      -2.08992922
H        2.89912894      -0.75860970       0.57132976
H        1.43375945       0.20803992       0.39910985
H        4.26153832       1.08488953      -0.47453981
H        1.53352933       2.59760898      -0.51552979
H        2.92549882       2.85897900      -1.59118942
H        2.65772892       4.07297849       1.06290959
H        5.33967812       3.30117867      -0.24569990
H        5.13327821       4.36921816       1.15196953
H        4.49981826       4.84962811      -0.42921982
H        4.31789853       1.80288930       1.88816931
H        2.54427903       1.83227933       2.00958922
