18
Properties=species:S:1:pos:R:3 atomization_energy=-1699.99 smiles=C.C.C.O.N.C.C.H.H.H.H.H.H.H.H.H.H.H pbc="F F F"
C        0.90445963      -0.03950998       0.65321977
C        2.36773900      -0.07213997       0.25095990
C        2.98303892       1.32089950       0.23856990
O        4.35303818       1.20500956      -0.14838994
N        4.90987825       2.49173912      -0.19667993
C        6.15391777       2.39054898      -0.52964980
C        7.01341708       3.60720855      -0.66234974
H        0.49279979      -1.05333961       0.66970974
H        0.31697988       0.55418978      -0.05423998
H        0.78129970       0.39358986       1.65085933
H        2.47134898      -0.52887979      -0.74074970
H        2.92921894      -0.71560974       0.93888966
H        2.92749880       1.77233929       1.23606952
H        2.45652906       1.96464927      -0.47570980
H        6.63221723       1.41431947      -0.72319974
H        6.43721765       4.51642822      -0.47594981
H        7.43088703       3.63652868      -1.67185935
H        7.83540684       3.53890853       0.05465998
