15
Properties=species:S:1:pos:R:3 atomization_energy=-1518.02 smiles=C.C.C.C.N.C.N.H.H.H.H.H.H.H.H pbc="F F F"
C        0.94236962      -1.14874953       0.88791963
C        1.17960951      -0.35159986      -0.35800986
C        0.95484961       1.12583961      -0.43221982
C       -0.25314990       1.55973936       0.39430985
N       -1.43122945       0.71803969       0.14858994
C       -1.19154958      -0.51771980      -0.12414995
N       -0.00229000      -1.21704954      -0.23866990
H        1.49294942      -2.06985917       1.02352958
H        0.54601979      -0.69498973       1.78491927
H        1.90436923      -0.71293970      -1.07561952
H        1.85035924       1.65922929      -0.09599996
H        0.79073967       1.39748948      -1.48224944
H       -0.02087999       1.54587944       1.46554940
H       -0.50384978       2.59597893       0.14172994
H       -2.04674916      -1.17915948      -0.34221985
