14
Properties=species:S:1:pos:R:3 atomization_energy=-1486.36 smiles=C.N.C.C.C.C.O.H.H.H.H.H.H.H pbc="F F F"
C        1.09557955      -0.00606000      -0.16538994
N        2.51509894      -0.01108000       0.07933996
C        3.26862870      -1.14253953       0.19559992
C        4.54264846      -0.82066969       0.42900982
C        4.71664802       0.67270970       0.48685982
C        3.28654876       1.13733962       0.24122991
O        2.91146895       2.29847911       0.19960992
H        0.72445969       1.01748958      -0.26632990
H        0.58745978      -0.49002979       0.67390973
H        0.88729965      -0.55653980      -1.08756954
H        2.83604890      -2.12898921       0.10178996
H        5.34864799      -1.52683940       0.56147975
H        5.05728815       0.99876963       1.47210938
H        5.37408803       1.03138957      -0.30819989
