18
Properties=species:S:1:pos:R:3 atomization_energy=-1759.32 smiles=C.C.C.C.C.N.O.H.H.H.H.H.H.H.H.H.H.H pbc="F F F"
C        1.03285959      -0.00757999      -0.12921995
C        2.56351903      -0.06968998      -0.02101999
C        2.94119887      -0.76364970       1.29860944
C        3.14057866      -0.87973968      -1.19117953
C        3.14482868       1.35178952      -0.03443999
N        2.89425895       2.09993920      -1.14650959
O        3.80518841       1.83338933       0.88074964
H        0.70866975       0.41507984      -1.08629956
H        0.60830978       0.61920974       0.66338972
H        0.58880975      -1.00589963      -0.04429998
H        2.54928906      -0.21425991       2.16267922
H        4.02930853      -0.82665966       1.41702938
H        2.54110899      -1.78327925       1.34191945
H        2.83996887      -0.46689982      -2.16012916
H        2.80012879      -1.92085920      -1.15830960
H        4.23627845      -0.88185964      -1.16454950
H        2.36029901       1.77200925      -1.93715930
H        3.27127868       3.03866888      -1.16905954
