14
Properties=species:S:1:pos:R:3 atomization_energy=-1364.76 smiles=C.C.N.O.C.C.O.H.H.H.H.H.H.H pbc="F F F"
C        0.67649972       0.00102000      -0.08883997
C        2.16926910      -0.03691999      -0.17035994
N        2.88983886       0.81975966       0.47581982
O        4.24428845       0.55946981       0.21855992
C        5.02522795       1.54601936       0.88493966
C        6.46695741       1.17458951       0.67458976
O        7.35173728       1.98444920       0.40886984
H        0.31867987      -0.95500965       0.30227988
H        0.27109991       0.14142995      -1.09433959
H        0.33925988       0.81324970       0.56005976
H        2.61758908      -0.82278965      -0.80304971
H        4.81554825       1.53408938       1.95910921
H        4.83017791       2.53492889       0.45914981
H        6.71674719       0.11713995       0.86658969
