17
Properties=species:S:1:pos:R:3 atomization_energy=-1607.4 smiles=C.C.N.N.C.C.O.H.H.H.H.H.H.H.H.H.H pbc="F F F"
C        3.30632876      -0.80477969      -1.26737953
C        3.24554872      -0.19256993       0.12305995
N        3.35661863       1.26789947       0.08502996
N        2.15137907       1.98032927      -0.18478992
C        4.53535810       2.01145925       0.14075995
C        5.81359760       1.25073955       0.37916985
O        4.54244811       3.23816879       0.00671000
H        3.22977877      -1.89470923      -1.20565956
H        4.24506815      -0.55471980      -1.77126929
H        2.48533898      -0.44085983      -1.89384929
H        4.04791846      -0.60612977       0.74028969
H        2.29833907      -0.45418983       0.60920979
H        2.36854898       2.63568905      -0.94544964
H        2.00077920       2.60595888       0.61331976
H        5.76531755       0.71610973       1.33053944
H        6.64809744       1.95687924       0.43046984
H        6.00124777       0.55733975      -0.44327981
