18
Properties=species:S:1:pos:R:3 atomization_energy=-1716.69 smiles=C.C.C.O.C.C.N.H.H.H.H.H.H.H.H.H.H.H pbc="F F F"
C        1.04094958      -0.05725998       0.10525996
C        2.52863903      -0.03709999       0.00661000
C        3.24576875      -0.64646972      -1.16968949
O        2.42213909      -1.17262953      -2.21889913
C        3.21066872       0.85323966      -1.00517960
C        4.43820805       1.60988932      -0.62253976
N        5.21483773       1.85194930      -1.82891928
H        0.70461971       0.69596973       0.82482969
H        0.69996974      -1.03685960       0.45469982
H        0.55432976       0.15350995      -0.85250967
H        2.98751881      -0.16600993       0.98050962
H        4.17889832      -1.16227953      -0.96620963
H        2.68413892      -0.80500970      -3.08094875
H        2.57925895       1.42778942      -1.67503935
H        5.04529787       1.06243962       0.10657996
H        4.15285849       2.56579910      -0.17201993
H        5.55686771       0.96342963      -2.19140915
H        6.04350771       2.39333901      -1.58666942
