18
Properties=species:S:1:pos:R:3 atomization_energy=-1756.52 smiles=C.C.N.C.O.C.C.H.H.H.H.H.H.H.H.H.H.H pbc="F F F"
C        1.90315930      -0.07516997      -1.26161944
C        2.42870904       0.24661990       0.12497995
N        3.12166871       1.51834934       0.14980993
C        4.46590847       1.62334942      -0.14085995
O        5.17829815       0.66172976      -0.40816984
C        4.96312822       3.05528868      -0.09940996
C        6.46224739       3.15457876      -0.31885988
H        1.37547951      -1.03376962      -1.25555946
H        2.71789882      -0.13581995      -1.99031919
H        1.20677953       0.69769971      -1.60365938
H        3.10766886      -0.54343977       0.46245983
H        1.60097937       0.31539988       0.83652965
H        2.57755899       2.36209914       0.27331989
H        4.70782803       3.48667874       0.87475967
H        4.44064809       3.62397848      -0.87676968
H        7.00865711       2.59869905       0.45039981
H        6.78449712       4.19946836      -0.27960987
H        6.74618718       2.74517886      -1.29367952
