14
Properties=species:S:1:pos:R:3 atomization_energy=-1435.86 smiles=C.C.C.C.N.C.O.H.H.H.H.H.H.H pbc="F F F"
C        2.03951924      -0.85803963      -0.77202969
C        1.96497920       0.47936981      -0.79376966
C        2.72507892       1.38949941       0.06216997
C        4.12147832       1.74713935      -0.30045988
N        3.04632890       2.67904890      -0.48066982
C        2.95968895       3.80659844       0.32099986
O        3.24913864       3.89372842       1.50671939
H        1.43282948      -1.46025940      -1.44087948
H        2.70321895      -1.37673940      -0.08741997
H        1.27350955       0.93806964      -1.49905937
H        2.44965909       1.38821946       1.11273958
H        4.54756841       1.39905948      -1.23100952
H        4.82143817       1.98552918       0.49026982
H        2.58178908       4.66271827      -0.26104990
