16
Properties=species:S:1:pos:R:3 atomization_energy=-1605.32 smiles=C.C.O.N.C.C.C.H.H.H.H.H.H.H.H.H pbc="F F F"
C        3.26302871      -1.10675959      -0.81249971
C        2.54524899       0.06980997      -0.20845992
O        1.46398936      -0.05028998       0.36132985
N        3.18317874       1.26739947      -0.35117985
C        2.89401898       2.53860889       0.28297988
C        4.11853841       3.07767879      -0.46726983
C        4.53093827       1.62451936      -0.73792970
H        4.24243836      -1.23134953      -0.34346987
H        3.37892875      -0.95927960      -1.88941923
H        2.67884905      -2.01585915      -0.64421974
H        2.98779890       2.50211901       1.37187950
H        1.93677928       2.97582881      -0.00910999
H        3.87083844       3.64452859      -1.37201942
H        4.82006800       3.65940857       0.13692995
H        4.77594788       1.39654942      -1.77757933
H        5.29066782       1.22048957      -0.06297997
