17
Properties=species:S:1:pos:R:3 atomization_energy=-1581.66 smiles=C.C.C.C.N.N.O.H.H.H.H.H.H.H.H.H.H pbc="F F F"
C        0.99724959      -0.30867989       0.07995997
C        2.47986895       0.01612999      -0.06836998
C        3.09453881      -0.69865970      -1.26690945
C        2.69475904       1.52256945      -0.17788992
N        2.17850922       2.22416907      -1.14608958
N        3.46209864       2.14369912       0.78279969
O        3.94744848       3.38855872       0.35989985
H        0.56042980       0.24337990       0.91937966
H        0.85249964      -1.37827950       0.26539990
H        0.43039982      -0.04450998      -0.81935965
H        2.99367872      -0.33361987       0.83574970
H        2.59675888      -0.42383984      -2.20332903
H        3.01831887      -1.78508934      -1.15158952
H        4.15466846      -0.44191981      -1.37009943
H        1.63500940       1.62206935      -1.77380925
H        4.14406828       1.58546933       1.28983954
H        3.30638881       3.62922849      -0.35021986
