14
Properties=species:S:1:pos:R:3 atomization_energy=-1461.74 smiles=C.C.C.O.C.C.N.H.H.H.H.H.H.H pbc="F F F"
C        0.87079965       0.14882994      -0.04399998
C        2.37161909       0.03187999      -0.06615997
C        2.91110887      -1.37200945      -0.14390994
O        2.55530893      -1.93421926      -1.39723942
C        3.13901875       1.13798949       0.00000000
C        4.54501836       1.13798949       0.00000000
N        5.69602789       1.13798949       0.00000000
H        0.53636976       1.18447951       0.08616997
H        0.45587982      -0.43656982       0.78434969
H        0.44018983      -0.22033991      -0.98128964
H        2.50168904      -1.99398922       0.65992976
H        4.00036840      -1.41689943      -0.06119998
H        1.63254942      -2.22974912      -1.33372954
H        2.67360889       2.11698910       0.05558998
