12
Properties=species:S:1:pos:R:3 atomization_energy=-1264.35 smiles=C.C.C.O.O.N.C.H.H.H.H.H pbc="F F F"
C        0.90136964      -0.04984998       0.00541000
C        2.37412903       0.02761999       0.00236000
C        3.16516885       1.14686953       0.00260000
O        2.92967894       2.44582896       0.00526000
O        4.47617835       0.80376968      -0.00068000
N        4.57991829      -0.58121975      -0.00312000
C        3.31834881      -1.02331957      -0.00121000
H        0.55887979      -1.08970956      -0.00659000
H        0.48708982       0.45215982      -0.87492968
H        0.49225980       0.43019985       0.90027963
H        3.81630840       2.84761879       0.00407000
H        3.14390868      -2.09066918      -0.00250000
