18
Properties=species:S:1:pos:R:3 atomization_energy=-1786.07 smiles=C.C.C.C.C.C.N.H.H.H.H.H.H.H.H.H.H.H pbc="F F F"
C        1.82271925       0.11974996      -0.73910973
C        1.82194926      -0.11116995       0.74215972
C        0.51626979       0.01469000       0.00193000
C       -0.33797987       1.23100952       0.22608991
C       -1.72832932       0.73456972      -0.15282995
C       -1.69222929      -0.75148973       0.18172993
N       -0.32563986      -1.18764955      -0.15107993
H        2.14270922       1.09274953      -1.09593962
H        2.13053928      -0.70289976      -1.37324940
H        2.10716912      -1.09241961       1.10586962
H        2.13219912       0.70260970       1.38570940
H       -0.31541988       1.52727934       1.28090954
H       -0.04117998       2.08790918      -0.38627985
H       -2.51895910       1.26889945       0.38203984
H       -1.89002924       0.86930963      -1.22960946
H       -2.44557915      -1.32006946      -0.37164984
H       -1.86475928      -0.90503968       1.25310945
H       -0.31523987      -1.48020947      -1.12855949
