16
Properties=species:S:1:pos:R:3 atomization_energy=-1613.99 smiles=C.C.N.C.O.C.C.H.H.H.H.H.H.H.H.H pbc="F F F"
C        0.91376964       0.03482999       0.15910993
C        2.41836901      -0.06322997       0.03820999
N        3.09633869       0.90507967       0.91654963
C        4.00206836      -0.00966000       1.36575945
O        5.07987786       0.15061994       1.88061931
C        3.12976879      -1.17693960       0.85961967
C        3.84246858      -2.24947915       0.06491997
H        0.43443983      -0.78987966      -0.37815986
H        0.54980981       0.97117961      -0.27689990
H        0.58115976      -0.00542000       1.20182955
H        2.76488896       0.03659999      -0.99850961
H        3.44158866       1.82838926       0.69042973
H        2.52087908      -1.60608933       1.66671936
H        4.48079803      -1.82186927      -0.71494971
H        3.11832885      -2.91477878      -0.41596984
H        4.47261846      -2.85863886       0.72101972
