15
Properties=species:S:1:pos:R:3 atomization_energy=-1445.53 smiles=C.C.C.O.N.C.N.H.H.H.H.H.H.H.H pbc="F F F"
C        0.98449961      -0.01787999       0.00857000
C        2.49869892      -0.01961999      -0.01554999
C        3.10229875       1.04913956       0.88558966
O        4.40476810       0.59011979       1.29135946
N        4.36128840      -0.80459966       1.16059951
C        3.17212865      -1.19121953       0.62040976
N        2.70604885      -2.39160903       0.66215974
H        0.58476974      -0.78227970      -0.66523975
H        0.59212974       0.95191960      -0.31290987
H        0.59751979      -0.23010991       1.01078962
H        2.87842894       0.07479997      -1.03963960
H        2.50973891       1.21634958       1.79306932
H        3.20891880       2.00447926       0.36217985
H        4.69181812      -1.34698941       1.95340918
H        1.80670933      -2.45644907       0.17714993
