14
Properties=species:S:1:pos:R:3 atomization_energy=-1483.91 smiles=C.C.C.N.C.C.O.H.H.H.H.H.H.H pbc="F F F"
C        0.93057964       0.03177999      -0.00891000
C        2.41350911      -0.00663000      -0.00140000
C        3.26867866       1.08209963       0.00497000
N        4.56269820       0.62333977       0.01068999
C        4.55995838      -0.74571974       0.00801999
C        3.25143864      -1.14746958       0.00053000
O        2.89868887      -2.43911897      -0.00393000
H        0.55772980       1.06079960      -0.00013000
H        0.53118978      -0.48117981       0.87165966
H        0.54091980      -0.46275982      -0.90424962
H        3.06659867       2.14500922       0.00593000
H        5.39010803       1.20509951       0.01599999
H        5.48158770      -1.31031950       0.01158000
H        1.93081922      -2.51597906      -0.00924000
