13
Properties=species:S:1:pos:R:3 atomization_energy=-1327.02 smiles=C.C.N.C.C.N.O.H.H.H.H.H.H pbc="F F F"
C        0.97157961       0.02664999      -0.04870998
C        2.45216903       0.04457998      -0.03073999
N        3.22487875       1.11131959       0.06530997
C        4.51394830       0.63352973       0.04031999
C        4.52804807      -0.73941972      -0.04983998
N        3.21688868      -1.08912958      -0.10502996
O        2.75766901      -2.39004911      -0.24469991
H        0.57350977       1.04627957      -0.05517998
H        0.58496978      -0.48220979       0.83966967
H        0.59960978      -0.49105981      -0.93778962
H        5.36130795       1.30658954       0.08860997
H        5.32541787      -1.46296944      -0.09393996
H        2.09033913      -2.41092902       0.46011984
