17
Properties=species:S:1:pos:R:3 atomization_energy=-1584.23 smiles=C.C.C.O.C.N.N.H.H.H.H.H.H.H.H.H.H pbc="F F F"
C        0.99683961       0.00782000       0.03835998
C        2.51882889       0.01374999      -0.05693998
C        2.99108880      -0.81826970      -1.24771952
O        4.41200850      -0.92132961      -1.25222957
C        2.99081880       1.45272946      -0.12357995
N        3.72868864       1.88708920      -1.09811951
N        4.05546846       3.19059879      -0.97147963
H        0.65583972       0.58910977       0.90199965
H        0.61557977      -1.01258962       0.14747994
H        0.54203977       0.45030983      -0.85488966
H        2.93945879      -0.39833984       0.86874964
H        2.67019888      -0.39231984      -2.20494925
H        2.59251896      -1.83608927      -1.18393952
H        4.73583832      -0.01403999      -1.42887949
H        2.68688883       2.10815915       0.71528972
H        4.49490840       3.52014871      -1.83563924
H        4.76774813       3.32558870      -0.24840990
