9
Properties=species:S:1:pos:R:3 atomization_energy=-1040.33 smiles=C.C.C.N.N.C.O.H.H pbc="F F F"
C        1.00911963      -0.04047999      -0.00013000
C        2.20924922       0.01919999       0.00027000
C        3.62129847       0.09173997       0.00073000
N        4.38494849       1.16069956       0.00191000
N        5.68732801       0.69493971       0.00187000
C        5.60234789      -0.61535973       0.00067000
O        4.32137817      -1.08010962      -0.00012000
H       -0.05508998      -0.08891997      -0.00047000
H        6.39672757      -1.34612947       0.00024000
