12
Properties=species:S:1:pos:R:3 atomization_energy=-1300.24 smiles=C.C.C.O.C.O.N.H.H.H.H.H pbc="F F F"
C        1.09350955      -0.07829997       0.17657993
C        2.40842918       0.00998999      -0.02334999
C        3.29215859       1.21015951       0.03318999
O        4.60383829       0.69836971      -0.28251988
C        4.50634809      -0.65071973      -0.49114980
O        5.43874791      -1.38200946      -0.77455968
N        3.20637883      -1.03749958      -0.33291987
H        0.56575979      -1.02360962       0.10248996
H        0.50518979       0.80111970       0.42020983
H        3.32477871       1.65537934       1.03149958
H        3.02233876       1.96141918      -0.71405973
H        2.92435879      -1.99818927      -0.44812981
