18
Properties=species:S:1:pos:R:3 atomization_energy=-1732.59 smiles=C.C.N.C.C.C.O.H.H.H.H.H.H.H.H.H.H.H pbc="F F F"
C        1.06089964      -0.63413974       0.22259992
C        2.57458906      -0.48756981       0.24488990
N        2.94213880       0.89640963      -0.04895998
C        4.39712852       1.07286961       0.00803000
C        4.72837789       2.52403903      -0.31143988
C        4.84494786       2.89230893      -1.76756935
O        4.83394824       3.37229875       0.57697977
H        0.78042967      -1.67498939       0.41286983
H        0.64885973      -0.34656985      -0.75050968
H        0.59096977      -0.01233999       0.99192963
H        3.00819887      -1.15929950      -0.50474979
H        2.94987881      -0.78740972       1.23027952
H        2.51541889       1.51494943       0.64589976
H        4.91024817       0.42936983      -0.71465971
H        4.78932800       0.84505965       1.00565960
H        5.58068778       2.24592911      -2.25261916
H        5.18040814       3.92913857      -1.85840923
H        3.87212836       2.78721902      -2.25347911
