15
Properties=species:S:1:pos:R:3 atomization_energy=-1449.31 smiles=C.C.N.C.C.N.O.H.H.H.H.H.H.H.H pbc="F F F"
C        1.00559961       0.00143000      -0.03266999
C        2.51179895      -0.08421996       0.07305997
N        3.02767884      -1.36472944       0.10809995
C        3.22147884       1.05625959       0.12550995
C        4.68835816       1.11373958       0.28010990
N        5.32623794       2.24018908       0.25336990
O        6.69384712       1.99205926       0.42396985
H        0.64263977       1.03521958      -0.03306999
H        0.53740981      -0.51412979       0.81302966
H        0.66335976      -0.47156981      -0.95968964
H        2.41238901      -2.07148923      -0.29020990
H        3.98098835      -1.45796937      -0.23127991
H        2.73736896       2.02658915       0.07843997
H        5.21815791       0.15712994       0.42454983
H        7.07152746       2.89121886       0.40643983
