20
Properties=species:S:1:pos:R:3 atomization_energy=-1854.36 smiles=C.C.C.C.N.O.C.H.H.H.H.H.H.H.H.H.H.H.H.H pbc="F F F"
C       -0.87619966       0.01027000       0.39567986
C        0.57781978       0.05321998      -0.05580998
C        1.51316935       0.82934970       0.88776968
C        1.18893959       2.34031917       0.88747962
N        2.17335914       3.09122873       1.67864933
O        1.41193948       0.36601986       2.24658921
C        1.98138918      -0.92035965       2.44968912
H       -1.46280946      -0.60456973      -0.29494988
H       -1.32143949       1.00931960       0.40911984
H       -0.97336959      -0.42596983       1.39459941
H        0.63147973       0.48476982      -1.06231964
H        0.93201963      -0.98035961      -0.14403994
H        2.54809907       0.70120970       0.54254980
H        0.20397992       2.51420896       1.33402943
H        1.18187949       2.73389890      -0.13377995
H        2.25209911       2.61840890       2.58327909
H        1.80236924       4.01879842       1.87734922
H        2.02271915      -1.10740959       3.52632856
H        2.99842886      -0.96971962       2.04952922
H        1.35649940      -1.69409932       1.99596926
