18
Properties=species:S:1:pos:R:3 atomization_energy=-1696.54 smiles=C.C.C.C.N.O.C.H.H.H.H.H.H.H.H.H.H.H pbc="F F F"
C        3.93150846      -1.00563960      -0.77671970
C        3.02848883      -0.32546988       0.24267990
C        2.86390879       1.16767954      -0.02170999
C        4.13953843       1.91254930       0.25892989
N        4.76573806       2.52858907      -0.68874971
O        5.91303782       3.13023888      -0.15095994
C        6.60364727       3.79570858      -1.20181958
H        3.96725851      -2.08306921      -0.58787978
H        4.95444803      -0.62163975      -0.72099973
H        3.56024869      -0.85198968      -1.79448931
H        3.43262863      -0.49169982       1.24865946
H        2.04097923      -0.80092969       0.20866992
H        2.10064913       1.57237939       0.65183977
H        2.53991899       1.35019945      -1.05168961
H        4.51155822       1.90397925       1.29895955
H        7.49019699       4.27804835      -0.78198970
H        5.96428781       4.56221826      -1.65086930
H        6.92027707       3.07506867      -1.96202919
