10
Properties=species:S:1:pos:R:3 atomization_energy=-1161.81 smiles=C.C.O.C.C.C.N.H.H.H pbc="F F F"
C        0.97384959      -0.02249999      -0.00604000
C        2.47270905      -0.07711997       0.00144000
O        3.11057875      -1.12159957       0.00586000
C        3.17710866       1.18222959       0.00016000
C        3.77584859       2.22294905      -0.00033000
C        4.54214834       3.55124854      -0.00058000
N        5.11046797       4.56204819      -0.00068000
H        0.61416974       1.01021960       0.00880000
H        0.59145980      -0.53848979       0.87859965
H        0.60124975      -0.51052981      -0.91045962
