12
Properties=species:S:1:pos:R:3 atomization_energy=-1339.47 smiles=C.C.C.N.C.C.O.H.H.H.H.H pbc="F F F"
C        2.88908893      -1.10847960       0.37130986
C        2.28859908       0.06406997       0.13110995
C        3.00922889       1.28841955       0.06414997
N        2.46725895       2.47716901      -0.17024994
C        3.50996866       3.36662861      -0.14805994
C        4.67661819       2.69868885       0.10125996
O        4.38182816       1.38058947       0.23895991
H        2.30856908      -2.02423919       0.41571985
H        3.96080842      -1.18899952       0.52838979
H        1.21592957       0.11390995      -0.02195999
H        3.36151865       4.42375805      -0.31099988
H        5.71408774       2.97765872       0.20513992
