14
Properties=species:S:1:pos:R:3 atomization_energy=-1368.22 smiles=C.C.O.C.O.N.C.H.H.H.H.H.H.H pbc="F F F"
C        1.07395955       0.13593995      -0.02162999
C        2.58266895      -0.00574999       0.14121995
O        3.20459863       1.21609952      -0.21066991
C        3.67061863       1.16093952      -1.55360935
O        4.56842814       0.06818998      -1.75035935
N        3.96568850      -1.20031948      -1.56676944
C        3.05686878      -1.21900953      -0.64065972
H        0.70531973       1.00058964       0.54067977
H        0.54948979      -0.76000970       0.32707988
H        0.80200966       0.29754987      -1.07097952
H        2.79815884      -0.19642992       1.19805947
H        4.21832836       2.08544920      -1.75792929
H        2.83431892       1.10194952      -2.26089916
H        2.57881889      -2.18308904      -0.39985985
