14
Properties=species:S:1:pos:R:3 atomization_energy=-1389.8 smiles=C.C.N.O.C.C.O.H.H.H.H.H.H.H pbc="F F F"
C       -0.70261973       1.96357926       1.65926941
C       -0.59992974       0.59896974       1.05491958
N        0.26567990       0.35065986       0.13091995
O        0.14759994      -0.99689961      -0.25844989
C        1.04591956      -1.28367950      -1.25884948
C        0.89864964      -2.72714904      -1.64134934
O        1.86106931      -0.52644980      -1.77074936
H       -0.54077976       1.88613931       2.73772903
H       -1.70908931       2.35282899       1.48401942
H        0.03493999       2.64278890       1.22460951
H       -1.29499946      -0.16983992       1.43378948
H        1.24670957      -3.36211869      -0.82388969
H        1.50190945      -2.92869888      -2.53054893
H       -0.14511995      -2.94464874      -1.88082925
