17
Properties=species:S:1:pos:R:3 atomization_energy=-1607.19 smiles=C.C.N.N.C.C.O.H.H.H.H.H.H.H.H.H.H pbc="F F F"
C        0.71312970       0.54306979      -1.45809945
C        1.05059961      -0.04178998      -0.09601996
N        2.50102895      -0.20525992       0.03071999
N        2.82870884      -0.73876971       1.29498950
C        3.55439864       0.03544999       2.18947907
C        3.93782835      -0.71167974       3.43679865
O        3.84266843       1.21351956       1.99674922
H       -0.37182985       0.63929972      -1.56817934
H        1.07745951      -0.09990996      -2.26656905
H        1.15481949       1.53721943      -1.58412932
H        0.55490980      -1.01398962       0.00823000
H        0.66719974       0.61994976       0.68959975
H        2.94164877       0.72461974      -0.02936999
H        2.76121880      -1.74449933       1.42750946
H        3.03666891      -1.00533958       3.98184855
H        4.54662823      -0.06758997       4.07716845
H        4.52022833      -1.59953932       3.17572866
