14
Properties=species:S:1:pos:R:3 atomization_energy=-1476.14 smiles=C.N.C.C.C.C.O.H.H.H.H.H.H.H pbc="F F F"
C        0.98459959       0.00628000      -0.00863999
N        2.42935904      -0.03104999      -0.00159000
C        3.22867861       1.08529957       0.00444000
C        4.54107845       0.66941975       0.01134999
C        4.53089840      -0.74431968       0.00916000
C        3.21659875      -1.16107957       0.00063000
O        2.74310899      -2.40224908      -0.00461000
H        0.64197973       1.04414958      -0.00103000
H        0.62200973      -0.50891981       0.88445966
H        0.63155977      -0.49307982      -0.91442961
H        2.80594881       2.08169918       0.00352000
H        5.41068767       1.31336943       0.01731999
H        5.38977798      -1.40170947       0.01306999
H        1.77365924      -2.39091916      -0.01283999
