12
Properties=species:S:1:pos:R:3 atomization_energy=-1301.46 smiles=C.C.C.O.C.C.N.H.H.H.H.H pbc="F F F"
C        1.85329927      -0.46598982      -1.16348958
C        2.19182904       0.21100992      -0.05857998
C        3.29871870       1.16864950       0.05884998
O        3.67956857       2.04818921      -1.01146959
C        2.97130880       2.64526906       0.08418997
C        3.76555852       3.52182874       0.88886966
N        4.39257848       4.22709838       1.56456936
H        1.02218957      -1.16401948      -1.16141959
H        2.40105909      -0.33620986      -2.09268922
H        1.61152934       0.03467999       0.84566966
H        4.10640834       0.81363968       0.69334971
H        1.95266922       2.95821887      -0.10669996
