15
Properties=species:S:1:pos:R:3 atomization_energy=-1500.64 smiles=C.C.C.N.C.N.O.H.H.H.H.H.H.H.H pbc="F F F"
C        1.14544954      -0.68337972      -1.06172956
C        2.30002918      -0.36697986      -0.15131995
C        2.56344888      -1.12146962       0.92612964
N        3.10432875       0.72174972      -0.41443983
C        3.03446883       1.57445936      -1.48723942
N        3.95369847       2.57880904      -1.39999942
O        2.28426908       1.51357940      -2.44999898
H        1.50016938      -0.92647963      -2.06854919
H        0.45059981       0.16097993      -1.11661956
H        0.57324974      -1.54741942      -0.70540969
H        1.95161926      -1.98566922       1.16785958
H        3.38868867      -0.91035963       1.59766942
H        3.89577836       0.87003969       0.19473993
H        4.12030826       2.97550886      -0.48748980
H        3.85122852       3.26149883      -2.14142914
