12
Properties=species:S:1:pos:R:3 atomization_energy=-1351.31 smiles=C.C.C.C.C.C.H.H.H.H.H.H pbc="F F F"
C        0.92316961       0.00054000       0.00279000
C        2.25659919       0.00047000      -0.00075000
C        3.10505875       1.17224952      -0.00283000
C        4.37372833       0.72733974      -0.00626000
C        4.37224815      -0.72619970      -0.00647000
C        3.10530881      -1.17074953      -0.00318000
H        0.35861987       0.92684961       0.00443000
H        0.35913986      -0.92598967       0.00415000
H        2.77506902       2.19836921      -0.00180000
H        5.26588788       1.33408949      -0.00852999
H        5.26415789      -1.33335949      -0.00892999
H        2.77512882      -2.19642903      -0.00245000
