16
Properties=species:S:1:pos:R:3 atomization_energy=-1561.21 smiles=C.C.C.O.C.N.O.H.H.H.H.H.H.H.H.H pbc="F F F"
C        0.71305974      -0.00920000      -0.42608984
C        2.21814920       0.21779991      -0.31804986
C        2.96817888      -0.11410996      -1.60920941
O        2.38571911       0.53063977      -2.74256900
C        2.50864909       1.64487933       0.11853996
N        2.21757919       2.61919895      -0.78915970
O        2.93751887       1.92620925       1.23229956
H        0.22295991       0.20718992       0.52946977
H        0.49715979      -1.04955956      -0.68913975
H        0.24979990       0.63629976      -1.17942948
H        2.61418891      -0.43336982       0.47246981
H        2.96446886      -1.19402949      -1.79284928
H        4.01250831       0.20935992      -1.54568943
H        1.67241940      -0.04808998      -3.06835868
H        2.14918909       2.37372908      -1.77371930
H        2.48906895       3.56369856      -0.55323982
