16
Properties=species:S:1:pos:R:3 atomization_energy=-1548.4 smiles=C.C.C.C.O.N.C.H.H.H.H.H.H.H.H.H pbc="F F F"
C        0.87487966      -0.15654994       1.15847955
C        1.63612937      -0.06604997       0.06075998
C        2.69915894       0.97920961      -0.15422994
C        4.08639847       0.36787986      -0.34624987
O        4.13130839      -0.32717987      -1.59544941
N        5.41194781      -0.87855965      -1.75259929
C        5.42817775      -1.57283939      -2.83892876
H        0.12341995      -0.93498963       1.24799948
H        0.98069962       0.53553979       1.98793920
H        1.48864945      -0.78350968      -0.74541971
H        2.72855881       1.66946939       0.69685970
H        2.42529903       1.56070933      -1.04243959
H        4.32649848      -0.32389988       0.46995981
H        4.83539814       1.16815948      -0.36360985
H        6.34872760      -2.09224915      -3.14526874
H        4.54847832      -1.68132934      -3.49575862
