14
Properties=species:S:1:pos:R:3 atomization_energy=-1411.95 smiles=C.C.O.C.N.C.O.H.H.H.H.H.H.H pbc="F F F"
C        0.95321962      -0.01685999       0.12305995
C        2.45253895       0.05970998      -0.08752997
O        2.74566889       0.11037996      -1.50996942
C        3.20338871       1.09217951       0.80541967
N        4.13222839       0.01178999       1.16694955
C        3.29837881      -0.97578963       0.73048972
O        3.31081874      -2.15647919       0.97496962
H        0.69605975      -0.07676997       1.18594959
H        0.53584977      -0.90054963      -0.37127986
H        0.45750981       0.86693967      -0.29227990
H        3.70290846      -0.06337997      -1.56860943
H        2.65644885       1.48487937       1.66788930
H        3.69813864       1.90642926       0.26971991
H        4.61948837      -0.14388994       2.04013922
