13
Properties=species:S:1:pos:R:3 atomization_energy=-1309.94 smiles=C.C.C.O.N.C.N.H.H.H.H.H.H pbc="F F F"
C        0.87938964      -0.05635998       0.14177995
C        2.21317904      -0.06235997       0.01089999
C        3.03095890       1.21432954      -0.09783996
O        4.28599830       1.05968959       0.59484974
N        5.06531784      -0.05256998       0.14708994
C        4.34842808      -1.11165961      -0.06941997
N        2.98578883      -1.19855947      -0.04403998
H        0.32162988       0.87401965       0.17942993
H        0.31019987      -0.97586963       0.22116991
H        2.50940911       2.06403915       0.35436986
H        3.23928863       1.45191948      -1.14716955
H        4.83816823      -2.06314918      -0.33229986
H        2.52428909      -2.09593912      -0.08521997
