17
Properties=species:S:1:pos:R:3 atomization_energy=-1633.17 smiles=C.C.C.N.C.N.O.H.H.H.H.H.H.H.H.H.H pbc="F F F"
C        1.49819943      -0.14898994       1.45825942
C        2.92449883      -0.18554993       0.92731964
C        3.26419878       0.98081961      -0.00967000
N        3.14023877       2.30282905       0.65464972
C        4.69643830       0.83912967      -0.57213980
N        5.17002774       1.98160921      -1.16029949
O        5.35863778      -0.19139993      -0.56217979
H        1.28421949      -1.06327963       2.02177921
H        0.77480968      -0.07870997       0.63977972
H        1.34274949       0.69786972       2.13366920
H        3.06449877      -1.13069952       0.38759986
H        3.62396864      -0.21020992       1.77250924
H        2.58726895       0.96653962      -0.87257966
H        3.67846866       2.27356922       1.52286935
H        2.17000919       2.43437892       0.94085961
H        4.71078838       2.85016885      -0.90409961
H        6.13639741       1.99671919      -1.45295946
