18
Properties=species:S:1:pos:R:3 atomization_energy=-1782.09 smiles=C.C.C.C.C.N.C.H.H.H.H.H.H.H.H.H.H.H pbc="F F F"
C       -0.91367962       0.00134000      -1.15953959
C       -0.59569978       1.04460958      -0.03907999
C       -1.23260955      -0.00154000       0.92210963
C       -0.59613979      -1.04470957      -0.04205998
C        0.90007966      -1.21936947       0.24927991
N        1.66222938      -0.00041000      -0.07369997
C        0.90038965       1.21800954       0.25267990
H       -1.95734920       0.00203000      -1.49803945
H       -0.26777989       0.00258000      -2.04158923
H       -1.13544953       1.99382924      -0.10262996
H       -0.87903965      -0.00281000       1.95706924
H       -2.32991908      -0.00124000       0.93262964
H       -1.13598952      -1.99385927      -0.10810996
H        1.05562958      -1.48569944       1.30100949
H        1.30172951      -2.04507923      -0.34872987
H        1.84732924       0.00100000      -1.07767954
H        1.30219948       2.04514925      -0.34295988
H        1.05593957       1.48121943       1.30510949
