15
Properties=species:S:1:pos:R:3 atomization_energy=-1480.05 smiles=C.N.C.C.O.C.N.H.H.H.H.H.H.H.H pbc="F F F"
C        1.13626960      -0.02399999       0.15585994
N        2.57765892      -0.04866998       0.22586991
C        3.29652872       1.19496955       0.06160998
C        4.49399798       0.76174971      -0.76418969
O        4.55078816      -0.66362975      -0.64695974
C        3.34592862      -1.09526956      -0.18810992
N        3.09145885      -2.34683916      -0.18856992
H        0.69762975      -0.98210959       0.44969982
H        0.80541967       0.20864992      -0.86180965
H        0.73532968       0.73895972       0.83139970
H        3.61333868       1.56878935       1.04101960
H        2.72159901       1.97907922      -0.44191981
H        4.37005842       1.01449958      -1.82272934
H        5.42640790       1.20454956      -0.40230983
H        2.17208916      -2.49626897       0.22321991
