14
Properties=species:S:1:pos:R:3 atomization_energy=-1438.72 smiles=C.C.C.O.C.O.N.H.H.H.H.H.H.H pbc="F F F"
C        0.97710965      -0.00699000       0.05350998
C        2.49090894      -0.02228999       0.09225996
C        3.10239867       1.11657956       0.88198966
O        4.32741848       0.56756977       1.38875945
C        4.21270844      -0.79400969       1.36469941
O        5.05321805      -1.57394940       1.77623933
N        3.03232881      -1.15351960       0.76934968
H        0.59666974      -0.87392962      -0.49727980
H        0.60972978       0.89932967      -0.43817982
H        0.55005981      -0.04768998       1.06149956
H        2.89689883      -0.03441998      -0.92667966
H        2.49120897       1.43106947       1.73526931
H        3.31568873       1.98699926       0.25463990
H        2.94600880      -2.11358918       0.46208981
