17
Properties=species:S:1:pos:R:3 atomization_energy=-1612.39 smiles=C.N.C.C.C.C.H.H.H.H.H.H.H.H.H.H.H pbc="F F F"
C        1.17534953       0.09562996      -0.15352994
N        2.62966893       0.06090998      -0.05154998
C        3.28326871      -0.63713977      -1.14686953
C        3.39323871       0.87495964      -1.01189963
C        2.73047880       1.73138934      -2.05554921
C        4.68451818       1.44766946      -0.48144981
H        0.78826966       0.96271963       0.38981984
H        0.76437970      -0.79990971       0.32400986
H        0.77583970       0.12420995      -1.17138957
H        2.66964905      -1.05719958      -1.93513926
H        4.13674840      -1.24629953      -0.87133964
H        1.96413919       1.19907952      -2.62809893
H        3.47286865       2.08180920      -2.78244895
H        2.27072898       2.61139889      -1.59403938
H        5.12363815       0.82378970       0.30528988
H        4.51354811       2.44495892      -0.06225998
H        5.42010769       1.53487943      -1.28785950
