17
Properties=species:S:1:pos:R:3 atomization_energy=-1585.62 smiles=C.C.C.O.C.N.N.H.H.H.H.H.H.H.H.H.H pbc="F F F"
C        1.08793959      -0.03041999      -0.06087997
C        2.51468890      -0.52010979      -0.27905989
C        2.56476908      -1.56192934      -1.39025943
O        3.34093876       0.58566974      -0.69724974
C        3.91886843       1.34737952       0.26121989
N        3.76919840       1.15435948       1.52856938
N        4.44344846       2.04939914       2.29005907
H        1.05083958       0.72438973       0.73091969
H        0.42479983      -0.85506969       0.21741992
H        0.69503970       0.44565983      -0.96606965
H        2.90808897      -0.97583960       0.63722973
H        2.21602911      -1.14233955      -2.34034919
H        1.95241928      -2.43502893      -1.14512958
H        3.59599848      -1.89396927      -1.55304943
H        4.52635846       2.14443920      -0.19875993
H        4.46715801       1.71416937       3.25725866
H        3.93167853       2.93475887       2.34063912
