16
Properties=species:S:1:pos:R:3 atomization_energy=-1505.79 smiles=C.C.C.O.C.N.O.H.H.H.H.H.H.H.H.H pbc="F F F"
C        0.01353999       1.66290928       1.08232963
C        0.82692965       0.43244982       0.72312972
C        2.16889919       0.80121968       0.10183995
O        2.86693879      -0.41688984      -0.20228992
C        4.07817828      -0.28039989      -0.78948969
N        4.61553838       0.85432967      -1.07833952
O        5.86255794       0.62714978      -1.67470931
H       -0.94500964       1.36919949       1.52096942
H       -0.19065992       2.27057910       0.19521993
H        0.54416976       2.28451913       1.81028929
H        0.26079990      -0.19802992       0.02671999
H        0.99151959      -0.17992993       1.61801930
H        2.76099903       1.39342947       0.80907967
H        2.01082918       1.37357945      -0.81953968
H        4.53102810      -1.26616948      -0.98185959
H        6.17781758       1.53305937      -1.85374931
