14
Properties=species:S:1:pos:R:3 atomization_energy=-1436.41 smiles=C.C.C.N.O.C.C.H.H.H.H.H.H.H pbc="F F F"
C        0.90129962       0.07304997      -0.09311996
C        2.23471904       0.13160995      -0.16798993
C        3.01348875       1.37983942      -0.03756998
N        4.30812826       1.39485943      -0.04195998
O        4.70435798       2.74533884       0.11965995
C        3.57397854       3.56019848      -0.20077992
C        2.37936894       2.71399905       0.14814994
H        0.39398983      -0.88256964      -0.19314993
H        0.27641990       0.94350965       0.07261998
H        2.82426882      -0.76742969      -0.32405989
H        3.60980857       3.79741862      -1.26982954
H        3.60927867       4.49072827       0.37224986
H        1.52838935       2.90087885      -0.50863979
H        2.09124916       2.82853877       1.19734954
