16
Properties=species:S:1:pos:R:3 atomization_energy=-1553.3 smiles=C.C.O.O.C.C.N.H.H.H.H.H.H.H.H.H pbc="F F F"
C        1.49199940       2.45032903      -1.03702961
C        2.92501888       2.02603920      -1.13593956
O        3.49492871       1.75484933      -2.18330907
O        3.48833857       2.00331916       0.10107996
C        4.86760822       1.58925934       0.14696995
C        5.80696785       2.75048892      -0.20232993
N        5.70422765       3.83953851       0.77320971
H        1.43361940       3.46833855      -0.64318972
H        0.94298960       1.75706934      -0.39424983
H        1.03858959       2.43316900      -2.03208922
H        5.03336816       0.73741974      -0.52403979
H        5.06371805       1.23299953       1.16471957
H        5.56728797       3.15030881      -1.19256950
H        6.84041726       2.39084900      -0.22179991
H        4.72996808       4.13550844       0.83573967
H        6.22911753       4.64433796       0.43380982
