18
Properties=species:S:1:pos:R:3 atomization_energy=-1712.18 smiles=C.C.C.N.C.C.O.H.H.H.H.H.H.H.H.H.H.H pbc="F F F"
C        1.17788950       0.23840991       0.09877996
C        2.66989886      -0.10817996      -0.01381000
C        3.07606892      -1.02707962       1.14732954
N        2.88917876      -0.84639966      -1.26652956
C        3.48256851       1.16748954      -0.10022996
C        3.73840844       2.05090922       1.09917956
O        4.74753791       1.17674959       0.57612979
H        0.85072966       0.87633964      -0.73085970
H        0.97179965       0.78501970       1.02611956
H        0.55306981      -0.66219973       0.09727996
H        2.93002892      -0.53744980       2.11615918
H        4.13073837      -1.31937946       1.08276957
H        2.47953890      -1.94727929       1.15686955
H        2.49100912      -0.33422988      -2.05129920
H        2.39808914      -1.73838926      -1.23186946
H        3.42031864       1.65781938      -1.06443960
H        3.30118877       1.79708933       2.05533915
H        3.86863837       3.11296883       0.93364962
