16
Properties=species:S:1:pos:R:3 atomization_energy=-1481.64 smiles=C.C.C.N.N.C.H.H.H.H.H.H.H.H.H.H pbc="F F F"
C        1.94517927      -0.90729962       1.05659960
C        2.74809884      -0.38216985      -0.11770995
C        2.81333883       1.11935950      -0.06848997
N        3.95360839       1.72380931       0.04254998
N        3.84868855       3.07386884       0.06446997
C        5.10847809       3.79339848       0.21839991
H        1.89035929      -1.99961923       1.02355960
H        0.92388964      -0.51246980       1.04225962
H        2.40166897      -0.61331976       2.00732921
H        2.26568917      -0.66747976      -1.05793961
H        3.75979856      -0.80022966      -0.10522996
H        1.85392922       1.66432940      -0.13248995
H        3.36880875       3.43015856      -0.76545967
H        5.61599800       3.49581868       1.14119952
H        4.91641817       4.86908789       0.27128988
H        5.77374794       3.60286870      -0.62966975
