13
Properties=species:S:1:pos:R:3 atomization_energy=-1360.84 smiles=C.C.O.N.C.C.N.H.H.H.H.H.H pbc="F F F"
C        1.09628961      -0.19298993       0.22182991
C        2.49182894      -0.22148991      -0.33887987
O        2.85290892      -1.05169958      -1.16579955
N        3.32970876       0.74012972       0.16712993
C        4.72418818       0.77362972      -0.23514991
C        5.43097762       1.93327920       0.32811987
N        5.96385784       2.85204897       0.79569968
H        0.88394964       0.75625968       0.72157971
H        0.98265961      -1.00864960       0.94059964
H        0.37957986      -0.31718988      -0.59466977
H        3.02940883       1.30669943       0.95161964
H        4.76765830       0.79050967      -1.32958953
H        5.19114787      -0.15858994       0.10118996
