16
Properties=species:S:1:pos:R:3 atomization_energy=-1507.43 smiles=C.C.N.O.C.C.O.H.H.H.H.H.H.H.H.H pbc="F F F"
C        1.51779938      -0.42727984       0.86698963
C        3.00940880      -0.18336993       0.72088971
N        3.31943863       0.84245969      -0.26808988
O        2.93371876       2.13979909       0.17526994
C        1.94479926       2.64879892      -0.71900972
C        4.58805800       0.86524968      -0.82569966
O        5.35954769      -0.08429997      -0.91326965
H        1.33448943      -1.23988956       1.57616941
H        1.07273953      -0.70255974      -0.09405996
H        1.00243960       0.46439981       1.23535946
H        3.49634858      -1.11923951       0.42296983
H        3.44622852       0.12187996       1.67990935
H        1.70756927       3.67236855      -0.41718983
H        1.03198961       2.04840925      -0.66604974
H        2.32435896       2.66775884      -1.74594936
H        4.82841815       1.84608929      -1.26881946
