16
Properties=species:S:1:pos:R:3 atomization_energy=-1467.09 smiles=C.C.N.C.N.C.H.H.H.H.H.H.H.H.H.H pbc="F F F"
C        2.47192909      -0.81456971       0.63531977
C        1.76094931       0.51582981       0.41121983
N        2.72295883       1.61730937       0.19023993
C        1.96829925       2.79633877      -0.27035988
N        3.55104869       1.85826932       1.24501946
C        4.74518820       2.18506908       0.87616964
H        1.73611929      -1.61896933       0.73571972
H        3.07612872      -0.80035968       1.54763945
H        3.12493867      -1.05918960      -0.20853992
H        1.11378953       0.73610970       1.26967953
H        1.11637959       0.39941985      -0.46945981
H        1.41092940       2.57396908      -1.18696951
H        2.65390888       3.61687864      -0.50976979
H        1.26912945       3.15016876       0.49554979
H        5.50832775       2.40645897       1.63847933
H        5.06055786       2.25684900      -0.17935993
