10
Properties=species:S:1:pos:R:3 atomization_energy=-958.05 smiles=O.C.C.C.H.H.H.H.H.H pbc="F F F"
O        0.98815961      -0.07103997      -0.30155989
C        2.35122896      -0.03046999       0.08645997
C        2.78787886       1.39440940       0.05398998
C        3.34084868       2.04765919       1.08443963
H        0.70702972      -0.99830964      -0.23449990
H        2.93750878      -0.62063976      -0.62422974
H        2.44886904      -0.46991981       1.08421959
H        2.62934898       1.92292920      -0.88310963
H        3.50997850       1.56646942       2.04241915
H        3.62667868       3.09058881       0.98829959
