12
Properties=species:S:1:pos:R:3 atomization_energy=-1257.51 smiles=C.N.C.C.N.C.H.H.H.H.H.H pbc="F F F"
C        0.98829959       0.00812999      -0.00781000
N        2.42795911       0.02469999      -0.00103000
C        3.23229881       1.12744961       0.00323000
C        4.51371818       0.62801976       0.00914999
N        4.50251820      -0.74313971       0.00857000
C        3.23203865      -1.07797957       0.00237000
H        0.61023974       1.03345957       0.00234000
H        0.64369975      -0.52382978       0.88256964
H        0.65233976      -0.50326980      -0.91338963
H        2.84881888       2.13820914       0.00175000
H        5.44368805       1.18223956       0.01379999
H        2.84728900      -2.08985920       0.00012000
