16
Properties=species:S:1:pos:R:3 atomization_energy=-1502.58 smiles=C.C.N.C.C.N.H.H.H.H.H.H.H.H.H.H pbc="F F F"
C        2.18740920      -0.24822990       1.46796938
C        2.41814897       0.15802994       0.02238999
N        3.00656881       1.49532941      -0.05442998
C        2.08591917       2.61956887       0.01122000
C        4.36422806       1.66009932       0.02743999
N        5.03852783       2.75396883       0.04528998
H        1.74936933      -1.25056948       1.51574944
H        1.50497944       0.44558981       1.97110921
H        3.12728888      -0.26012990       2.03091916
H        1.47028944       0.12748995      -0.52763980
H        3.07555870      -0.57217980      -0.46473983
H        1.04048958       2.30081898      -0.06082998
H        2.27397901       3.31343870      -0.81428968
H        2.20663911       3.15607887       0.95776965
H        4.91680827       0.70609969       0.08230997
H        4.40747814       3.55191848      -0.02098999
