15
Properties=species:S:1:pos:R:3 atomization_energy=-1512.4 smiles=C.C.C.C.N.N.C.H.H.H.H.H.H.H.H pbc="F F F"
C        1.78583927      -0.23051992       0.22835992
C        0.89995968      -1.44881946       0.54400979
C       -0.16359993      -0.91585964      -0.44187982
C       -1.50650945      -0.42596983       0.12628995
N       -1.47647938       0.81272971       0.49568980
N       -0.19276993       1.26043954       0.30657989
C        0.63661978       0.39982985      -0.55938976
H        2.64621884      -0.48508981      -0.40260985
H        2.15277926       0.32548988       1.09649955
H        1.33510953      -2.41537913       0.27417990
H        0.56761979      -1.49377947       1.58770940
H       -0.24366991      -1.48205944      -1.37408942
H       -2.39268900      -1.07434953       0.15612993
H       -0.15705993       2.26835908       0.14804994
H        0.83288965       0.77275968      -1.56611943
