16
Properties=species:S:1:pos:R:3 atomization_energy=-1508.17 smiles=C.C.O.C.C.N.O.H.H.H.H.H.H.H.H.H pbc="F F F"
C        0.93353960      -0.39838983       0.09596996
C        2.42170912      -0.09147996      -0.01236000
O        2.99834887      -0.96636961      -0.98383963
C        2.66600892       1.35708948      -0.42089983
C        4.13106842       1.67183929      -0.29994989
N        4.54493811       2.60666894       0.49389980
O        5.93843748       2.69118906       0.39550985
H        0.45136984       0.22639991       0.85342967
H        0.77951970      -1.45029939       0.35978987
H        0.42826983      -0.23828991      -0.86307963
H        2.90769887      -0.30626987       0.94598963
H        2.46209902      -0.92148965      -1.79454924
H        2.09702919       2.04505917       0.21367991
H        2.38452912       1.52011944      -1.46680942
H        4.82837828       1.08407955      -0.92355965
H        6.15096752       3.40587874       1.02434959
