13
Properties=species:S:1:pos:R:3 atomization_energy=-1342.31 smiles=C.N.C.C.O.C.N.H.H.H.H.H.H pbc="F F F"
C        0.98136963       0.02795999      -0.00850000
N        2.42003893       0.01902999       0.00068000
C        3.23568862       1.11102954       0.00533000
C        4.47671834       0.64251972       0.00863999
O        4.55599830      -0.75479969       0.00586000
C        3.21224881      -1.10854962      -0.00000000
N        2.88683889      -2.35020904      -0.00518000
H        0.58397976       1.04876958      -0.00003000
H        0.58892980      -0.49115980       0.87203966
H        0.60057974      -0.47234982      -0.90486967
H        2.87484887       2.12808915       0.00586000
H        5.41977765       1.15681958       0.01272000
H        1.87135925      -2.43032900      -0.00902000
