18
Properties=species:S:1:pos:R:3 atomization_energy=-1750.9 smiles=C.C.C.C.N.C.O.H.H.H.H.H.H.H.H.H.H.H pbc="F F F"
C        1.06343961      -0.28221989      -0.09680996
C        2.57346896      -0.11918995      -0.01974999
C        2.97456892       1.35667944       0.02813999
C        4.49067831       1.55174942       0.02524999
N        5.12268787       1.02945961       1.21835952
C        5.20288783       1.75720926       2.37711916
O        4.79792795       2.89848877       2.53632908
H        0.79762970      -1.34383944      -0.12489995
H        0.66305974       0.19137993      -0.99923960
H        0.57460975       0.16767994       0.77351970
H        3.03070884      -0.60160976      -0.89111963
H        2.94148880      -0.64026975       0.87100965
H        2.53753900       1.82717933       0.91743961
H        2.55710906       1.87184928      -0.84573968
H        4.71941811       2.62077905      -0.05185998
H        4.94490789       1.04702956      -0.83395966
H        5.44209786       0.06966997       1.22424956
H        5.68977764       1.18575959       3.18445882
