15
Properties=species:S:1:pos:R:3 atomization_energy=-1419.38 smiles=C.N.C.C.C.N.O.H.H.H.H.H.H.H.H pbc="F F F"
C        1.04417961       0.10304996      -0.26092990
N        2.45999912      -0.06204998       0.05594998
C        3.18562862      -0.84536964      -0.93610966
C        3.34574870       0.65627972      -0.86701966
C        4.54409836       1.23117946      -0.23032991
N        5.60878789       1.34692949      -0.95332963
O        6.62331750       1.91660919      -0.17401994
H        0.66417971       1.00906960       0.22220991
H        0.47879982      -0.74648973       0.13572995
H        0.82628968       0.17871994      -1.33331950
H        2.64236902      -1.26684952      -1.77281936
H        3.99136850      -1.46410947      -0.55854981
H        2.89630889       1.25529956      -1.65045939
H        4.48770838       1.54792938       0.82578968
H        7.37482711       1.94359930      -0.79539966
