16
Properties=species:S:1:pos:R:3 atomization_energy=-1645.86 smiles=C.N.C.C.C.C.C.H.H.H.H.H.H.H.H.H pbc="F F F"
C        0.64875975      -0.04819998       0.20261992
N        1.97991923       0.50002980      -0.01392000
C        0.83137970       1.39917947      -0.19308992
C        0.62084977       2.52977906       0.79260970
C        0.26658990       3.70907846      -0.07141997
C        0.17917994       3.36648857      -1.36761952
C        0.46072981       1.90490922      -1.57294941
H        0.39663985      -0.27802990       1.23027952
H        0.29389990      -0.75945968      -0.53297982
H        2.36014912       0.21237992      -0.91659966
H        1.52423938       2.73879892       1.37280946
H       -0.20528991       2.30779896       1.47705936
H        0.11475995       4.70625803       0.31725987
H       -0.05397998       4.04921847      -2.17155927
H       -0.43621984       1.40218940      -1.94823929
H        1.27673951       1.77187930      -2.29069898
