16
Properties=species:S:1:pos:R:3 atomization_energy=-1626.96 smiles=C.C.C.C.C.C.H.H.H.H.H.H.H.H.H.H pbc="F F F"
C        1.05970952       0.00973999       0.14773994
C        2.39625898       0.00271000       0.04241998
C        3.26198860       1.22666955       0.03568998
C        4.39396832       0.79898970      -0.88661968
C        4.61372815      -0.66835977      -0.54044977
C        3.22397868      -1.22274958      -0.23210990
H        0.48707982      -0.91055967       0.08698996
H        0.51102981       0.93279964       0.28792990
H        3.64133862       1.42013949       1.04495956
H        2.75220881       2.12028908      -0.33519987
H        4.08980848       0.89882967      -1.93578926
H        5.29751811       1.39822944      -0.73815970
H        5.10037775      -1.21292948      -1.35557953
H        5.25693769      -0.75319972       0.34481987
H        2.82917893      -1.77523934      -1.09061960
H        3.26103883      -1.88821927       0.63741973
