15
Properties=species:S:1:pos:R:3 atomization_energy=-1444.08 smiles=C.C.C.N.O.C.N.H.H.H.H.H.H.H.H pbc="F F F"
C        0.99127962       0.03718998      -0.08350997
C        2.50772909       0.01553000       0.04881998
C        3.01792876      -1.32646946       0.61908976
N        3.63347850      -0.92261965       1.87612932
O        3.11828873      -1.59890937       2.98389887
C        3.46319856       0.43181984       1.98062916
N        2.91232889       1.08869961       1.00602958
H        0.64801972      -0.74090973      -0.77295972
H        0.65053975       1.00600958      -0.46206982
H        0.50572981      -0.12564995       0.88547965
H        2.96653873       0.21085992      -0.92699962
H        3.78268854      -1.75628926      -0.03827999
H        2.22114917      -2.06622913       0.75387969
H        3.85591860      -2.18142920       3.24735869
H        3.82977860       0.89328968       2.91135893
