18
Properties=species:S:1:pos:R:3 atomization_energy=-1782.79 smiles=C.C.C.C.N.C.C.H.H.H.H.H.H.H.H.H.H.H pbc="F F F"
C       -0.88034963       0.01941999      -1.15637952
C       -0.60975975       1.05628962      -0.02416999
C       -1.16992958      -0.02755999       0.94245964
C       -0.60029978      -1.05783956      -0.07128997
N        0.84477969      -1.21464950       0.20710991
C        1.62759931      -0.01323000      -0.10606996
C        0.88026964       1.28129951       0.21928991
H       -1.91925930       0.02232999      -1.51205935
H       -0.23405990       0.04405998      -2.03805925
H       -1.19199948       1.98084919      -0.06834998
H       -0.77005967      -0.04381998       1.96106920
H       -2.26542902      -0.03361999       1.00997958
H       -1.14748951      -1.99891926      -0.15781994
H        1.03597960      -1.49884943       1.16789958
H        1.87891922      -0.03403999      -1.17371960
H        2.58671887      -0.04011998       0.42317983
H        1.25498956       2.09162917      -0.41563983
H        1.04894961       1.57408944       1.26207945
