12
Properties=species:S:1:pos:R:3 atomization_energy=-1314.53 smiles=C.C.O.C.C.C.N.H.H.H.H.H pbc="F F F"
C        0.97622964      -0.22403991      -0.36258986
C        2.30937906      -0.25840990      -0.31820987
O        3.04600869       0.83093970       0.06799997
C        4.41446822       0.73583971       0.11155995
C        5.17743820       1.77519934       0.46349981
C        6.59215762       1.68425928       0.51196980
N        7.74765713       1.60619935       0.55022975
H        0.40572983      -1.09300955      -0.67136977
H        0.43130981       0.67396972      -0.09072996
H        2.87322890      -1.14154951      -0.58499974
H        4.81999786      -0.23162991      -0.15554993
H        4.72485837       2.72487881       0.72335972
