16
Properties=species:S:1:pos:R:3 atomization_energy=-1613.83 smiles=C.C.C.C.C.C.N.H.H.H.H.H.H.H.H.H pbc="F F F"
C        1.91515929      -0.00036000      -0.45900983
C        0.87486969       0.77066968       0.29723988
C        0.87522964      -0.77045968       0.29717989
C       -0.58323979      -0.99888962      -0.11876996
C       -1.03176958      -0.00001000      -1.26643948
C       -0.58300979       0.99885959      -0.11905996
N       -1.35893945       0.00012000       0.76471971
H        1.87729926      -0.00027000      -1.54195935
H        2.92667897      -0.00017000      -0.06828997
H        1.12031962       1.28400955       1.21680958
H        1.12014954      -1.28411945       1.21719955
H       -0.96780960      -2.01903915      -0.13536995
H       -2.09672917      -0.00006000      -1.52700935
H       -0.43368984      -0.00020000      -2.18051904
H       -0.96755960       2.01904924      -0.13572995
H       -1.07389962       0.00021000       1.74203936
