14
Properties=species:S:1:pos:R:3 atomization_energy=-1406.99 smiles=C.N.C.C.O.C.O.H.H.H.H.H.H.H pbc="F F F"
C        1.13720954      -0.00774000       0.34357985
N        2.57358907      -0.04790998       0.33996987
C        3.43528870       1.08693960      -0.03482999
C        4.42158850       0.06408998      -0.64783975
O        4.81324800       0.28914989      -2.02506923
C        3.25196878      -0.93810964      -0.44129983
O        2.93308894      -2.01034924      -0.90028966
H        0.74677972      -1.00753959       0.55268979
H        0.78076969       0.30722986      -0.64204976
H        0.80102968       0.69419975       1.10957951
H        3.81428849       1.63797934       0.82939965
H        2.96459881       1.77197935      -0.74725972
H        5.29245786      -0.16077994      -0.02341999
H        4.24529828      -0.31083987      -2.54460907
