15
Properties=species:S:1:pos:R:3 atomization_energy=-1447.98 smiles=C.C.O.N.C.C.N.H.H.H.H.H.H.H.H pbc="F F F"
C        0.99511960      -0.01829999      -0.04760998
C        2.51860912       0.03123999      -0.03132999
O        3.02614871      -1.09838951      -0.76442972
N        3.30461871      -0.67314971      -2.08856916
C        3.31778864       0.61760977      -2.07207918
C        3.08683866       1.25377951      -0.74412973
N        4.38385842       1.71876937      -0.23115991
H        0.57039979       0.82133969       0.51038980
H        0.64240977      -0.95201965       0.40292984
H        0.60225977       0.00486000      -1.06924954
H        2.86838894      -0.03966998       1.00479959
H        3.52500861       1.23128948      -2.95979871
H        2.38667898       2.08925916      -0.81577970
H        5.02387798       0.92045963      -0.19696992
H        4.27701834       2.01954923       0.73715971
