14
Properties=species:S:1:pos:R:3 atomization_energy=-1469.35 smiles=C.C.C.C.O.C.N.H.H.H.H.H.H.H pbc="F F F"
C        1.12415959      -0.06240998       0.62233978
C        2.51999896       0.00000000       0.00000000
C        2.47774912      -0.54781980      -1.43199944
C        3.85561858      -0.77203971      -2.00497925
O        4.87153803      -0.86923967      -1.32409944
C        3.00201878       1.36116943       0.00000000
N        3.38622869       2.44615901       0.00000000
H        1.13415961       0.32154988       1.64883929
H        0.75812970      -1.09427954       0.65485973
H        0.40251983       0.53482979       0.05261998
H        3.18555873      -0.62133973       0.61197975
H        1.94954927       0.14254994      -2.10092922
H        1.96033920      -1.51316935      -1.46907939
H        3.89442838      -0.91911963      -3.09804873
