18
Properties=species:S:1:pos:R:3 atomization_energy=-1732.12 smiles=C.C.C.O.C.N.C.H.H.H.H.H.H.H.H.H.H.H pbc="F F F"
C        1.00504959      -0.06512997       0.85625969
C        2.37416915      -0.05018998       0.20116993
C        3.02734880       1.31940948       0.25247990
O        2.40189910       2.33693919       0.55909976
C        4.49563814       1.37180948      -0.17607994
N        5.17203781       2.56091901       0.36787986
C        5.46262803       2.41194895       1.78986925
H        0.58407974      -1.07499954       0.83690967
H        0.31203987       0.60428977       0.33625988
H        1.06614952       0.26092990       1.90004919
H        2.29291899      -0.35207985      -0.84788967
H        3.02546893      -0.76040971       0.72122973
H        4.51371818       1.41963949      -1.26982954
H        5.01318822       0.45721982       0.13115995
H        4.53141821       3.35385863       0.25544990
H        6.12820775       1.56121941       1.96889916
H        4.55342805       2.28395921       2.38591896
H        5.97385772       3.30965877       2.15109923
