9
Properties=species:S:1:pos:R:3 atomization_energy=-808.87 smiles=C.C.O.H.H.H.H.H.H pbc="F F F"
C        1.00547962      -0.00068000       0.00431000
C        2.52012891       0.00158000       0.00124000
O        3.00439877       1.33660952       0.01174000
H        0.61752978      -1.02240960       0.01111000
H        0.61668977       0.51847979      -0.87736966
H        0.62210978       0.53002982       0.88134968
H        2.91216891      -0.50713980      -0.88546968
H        2.90598881      -0.50835980       0.88952963
H        2.66572884       1.77706925      -0.78588967
