16
Properties=species:S:1:pos:R:3 atomization_energy=-1547.29 smiles=C.C.N.C.O.C.O.H.H.H.H.H.H.H.H.H pbc="F F F"
C        1.62155938      -1.78240933       1.22032947
C        2.68114905      -0.99438960       0.45231983
N        3.64429847      -1.92636924      -0.15189995
C        2.06616920      -0.07399997      -0.62128977
O        1.33654946      -0.83133964      -1.60745937
C       -0.01421000      -0.77321968      -1.53266939
O       -0.67857975      -0.18003993      -0.69901972
H        0.89119962      -1.10462953       1.67543930
H        2.07873921      -2.36463910       2.02860919
H        1.08032953      -2.48198904       0.57402976
H        3.22865867      -0.36548987       1.16373952
H        3.17452882      -2.45658912      -0.88726962
H        3.94907854      -2.60765908       0.54204981
H        2.86286894       0.45588982      -1.15660952
H        1.44229947       0.69641970      -0.15228994
H       -0.44235981      -1.36850949      -2.35434903
