12
Properties=species:S:1:pos:R:3 atomization_energy=-1292.55 smiles=C.N.C.C.O.C.O.H.H.H.H.H pbc="F F F"
C        0.99352960       0.02467999      -0.00770000
N        2.42877893       0.02865999       0.00100000
C        3.23058875       1.11808952       0.00256000
C        4.46915799       0.64715972       0.00810000
O        4.55591805      -0.74647969       0.00938000
C        3.21132881      -1.11074958       0.00398000
O        2.81896885      -2.26781910       0.00178000
H        0.60141975       1.04530961       0.00668000
H        0.63470975      -0.52322981       0.86859963
H        0.64610977      -0.49412980      -0.90598964
H        2.86982899       2.13445925       0.00005000
H        5.41051810       1.16690955       0.01107000
