20
Properties=species:S:1:pos:R:3 atomization_energy=-1871.07 smiles=C.C.N.C.C.C.O.H.H.H.H.H.H.H.H.H.H.H.H.H pbc="F F F"
C        0.91220966      -0.09552996      -0.08426997
C        2.42547895       0.04566998       0.06310998
N        3.10962872      -0.73939972      -0.98893963
C        2.94813874       1.51787937       0.05355998
C        2.55852893       2.30839901      -1.19969950
C        2.51248907       2.28170918       1.30554943
O        4.38561817       1.45512939       0.07813997
H        0.38484986       0.44345982       0.70840972
H        0.61468973      -1.14791961      -0.01297999
H        0.55662976       0.28123990      -1.04908959
H        2.72458889      -0.40998985       1.01587958
H        2.75692892      -0.45889981      -1.90529920
H        2.84627892      -1.72134933      -0.89009964
H        2.91676891       1.81929928      -2.11161911
H        3.02543890       3.30056879      -1.18856955
H        1.47594936       2.44585898      -1.27785948
H        2.81560881       1.74713935       2.21292923
H        1.42988945       2.43584900       1.33768949
H        2.99909880       3.26303881       1.35151952
H        4.60164805       0.64861977      -0.43704982
