17
Properties=species:S:1:pos:R:3 atomization_energy=-1584.06 smiles=C.C.C.O.C.N.N.H.H.H.H.H.H.H.H.H.H pbc="F F F"
C        1.21073950       2.38383899       1.96517917
C        0.83239969       1.14973955       1.16604948
C        2.01101918       0.60839974       0.36508986
O        1.56077935      -0.54610982      -0.36109984
C        2.47317914      -1.13110956      -1.17241959
N        3.68034853      -0.69996974      -1.32644953
N        4.40707845      -1.43856939      -2.19933917
H        0.34735987       2.74973899       2.52884897
H        1.55153935       3.18765863       1.30573944
H        2.01125915       2.15945923       2.67653896
H        0.00392000       1.38557945       0.48637982
H        0.45595981       0.36960984       1.83960930
H        2.82364884       0.31873986       1.04076960
H        2.36655910       1.37088948      -0.33740988
H        2.03468924      -2.01070919      -1.67276938
H        5.38810805      -1.15193950      -2.14539907
H        4.13113832      -1.23454947      -3.16397885
