12
Properties=species:S:1:pos:R:3 atomization_energy=-1329.52 smiles=C.C.C.C.O.C.N.H.H.H.H.H pbc="F F F"
C        0.93713962       0.12187996      -0.04632998
C        2.43455909      -0.01031999      -0.02365999
C        3.10198888      -1.17579956       0.05492998
C        2.45921891      -2.50476900       0.08207997
O        3.12856870      -3.52491853       0.18497993
C        3.19922877       1.19702958      -0.07145998
N        3.81731848       2.17723924      -0.11010995
H        0.62385976       1.11949954       0.28185988
H        0.45433981      -0.59137975       0.62868976
H        0.55715978      -0.03328999      -1.06108952
H        4.18882831      -1.21089947       0.08530996
H        1.36263951      -2.53655895      -0.00380000
