13
Properties=species:S:1:pos:R:3 atomization_energy=-1321.07 smiles=C.C.C.C.O.N.N.H.H.H.H.H.H pbc="F F F"
C        0.96756963      -0.12959995      -0.01082999
C        2.47671910       0.04578998       0.02596999
C        2.87694877       1.47037940       0.00823999
C        3.16892884       2.32008901       1.03851956
O        3.48019862       3.52385849       0.49805979
N        3.37848868       3.41132859      -0.88902963
N        3.01322884       2.16268906      -1.16391956
H        0.70731971      -1.19298950      -0.00098000
H        0.53829978       0.31736989      -0.91513961
H        0.49173981       0.34515986       0.85500964
H        2.92131895      -0.46705983      -0.83415970
H        2.87538886      -0.43990984       0.92374966
H        3.20257872       2.25023918       2.11411921
