12
Properties=species:S:1:pos:R:3 atomization_energy=-1096.09 smiles=C.C.O.C.H.H.H.H.H.H.H.H pbc="F F F"
C        0.96553962      -0.09789996      -0.00157000
C        2.47991891      -0.03309998      -0.01159999
O        2.87346887       1.33621941       0.02716999
C        4.28793822       1.47504942       0.01943999
H        0.61881976      -1.13472950      -0.03126999
H        0.55076981       0.43842982      -0.86150963
H        0.56467975       0.38353985       0.89725967
H        2.86606875      -0.50351980      -0.92215966
H        2.88058890      -0.55816980       0.86223969
H        4.52992844       2.54074891       0.04996998
H        4.71003795       1.04683956      -0.89498964
H        4.72516824       0.99196962       0.89869966
