18
Properties=species:S:1:pos:R:3 atomization_energy=-1712.06 smiles=C.C.C.N.C.C.O.H.H.H.H.H.H.H.H.H.H.H pbc="F F F"
C        1.21572947       0.14379994       0.20847992
C        2.68802886      -0.07634998      -0.15399994
C        2.84708890      -0.92862962      -1.42824942
N        2.28091913      -2.26909918      -1.28163953
C        3.36513859       1.25659956      -0.34146986
C        4.13088826       1.90712923       0.78178967
O        4.79749798       1.20872955      -0.27865988
H        1.12672959       0.78455970       1.09237961
H        0.71225973      -0.80202966       0.43130981
H        0.67614974       0.63419973      -0.60921976
H        3.16444869      -0.60705974       0.68193973
H        3.90953849      -1.02353960      -1.68028936
H        2.36343901      -0.43075983      -2.27645917
H        2.76573881      -2.75839901      -0.52931982
H        2.46906892      -2.80383882      -2.12925921
H        2.91478887       1.88222931      -1.10163954
H        4.12856832       1.44352946       1.76069926
H        4.20941829       2.98752891       0.79364968
