13
Properties=species:S:1:pos:R:3 atomization_energy=-1374.71 smiles=C.C.N.C.C.O.N.H.H.H.H.H.H pbc="F F F"
C        1.09235955       0.04840998       0.06117998
C        2.57921908      -0.03640999      -0.01899999
N        3.24219877      -1.14695949       0.05367998
C        4.66993797      -0.73438969      -0.06324998
C        4.60683800       0.76751971      -0.19185993
O        5.53636781       1.54647935      -0.30484987
N        3.29176874       1.08808960      -0.15640994
H        0.64738971      -0.94157964      -0.06869998
H        0.71405973       0.71954971      -0.71463972
H        0.80726970       0.44460982       1.03975958
H        5.21831788      -1.01649962       0.83886965
H        5.11725821      -1.17416950      -0.95821962
H        2.95087880       2.03308921      -0.21984992
