11
Properties=species:S:1:pos:R:3 atomization_energy=-1231.02 smiles=C.C.N.C.O.N.C.H.H.H.H pbc="F F F"
C        1.06199955      -0.03535999      -0.15305994
C        2.37175914      -0.00990000       0.06513997
N        3.20641870      -1.06080956       0.22526991
C        4.49067831      -0.60437979       0.43070983
O        5.45493799      -1.33084943       0.60607974
N        4.49691846       0.78381968       0.40430984
C        3.26741877       1.14587951       0.19185993
H        0.51876979      -0.97153962      -0.22526991
H        0.49286981       0.88172963      -0.26622989
H        2.97840889      -2.04095916       0.20657993
H        2.89094886       2.17438916       0.10866996
