18
Properties=species:S:1:pos:R:3 atomization_energy=-1795.54 smiles=C.C.N.C.C.C.C.H.H.H.H.H.H.H.H.H.H.H pbc="F F F"
C       -1.23882951      -0.77506971      -0.53001979
C       -1.20500956       0.75345968      -0.51445981
N       -0.00580000       1.08610956       0.30551988
C        1.20472947       0.75696967      -0.49787982
C        1.24666945      -0.77262967      -0.50751979
C       -0.00227000      -1.12094956       0.30190987
C       -0.01199999       0.00082000       1.32348943
H       -1.18910954      -1.18396954      -1.54389939
H       -2.14905914      -1.14328959      -0.04430999
H       -2.10458916       1.15257954      -0.03101999
H       -1.15649951       1.18573952      -1.51999946
H        2.09645917       1.16261955      -0.00568000
H        1.16607951       1.18480955      -1.50609941
H        2.15031903      -1.13345951      -0.00396000
H        1.21922956      -1.18448948      -1.52195944
H       -0.00448000      -2.13640927       0.70227971
H       -0.90920964       0.02616999       1.95305919
H        0.87496967       0.02916999       1.96669921
