16
Properties=species:S:1:pos:R:3 atomization_energy=-1569.88 smiles=C.C.C.C.C.N.O.H.H.H.H.H.H.H.H.H pbc="F F F"
C        0.95447963      -0.16939994      -0.15888993
C        2.42990913       0.07225997      -0.10763996
C        3.05790889       1.24735945       0.08216997
C        2.43245894       2.59473897       0.26990988
C        4.54933827       1.20511957       0.10178996
N        5.28700800       2.25409909       0.27944990
O        6.63456744       1.87542923       0.24485990
H        0.68370971      -0.93467964       0.57583980
H        0.67495974      -0.53744980      -1.15105949
H        0.35573985       0.71791971       0.05484998
H        3.02030875      -0.83416966      -0.23870991
H        1.34400951       2.57965890       0.18199993
H        2.80269878       3.29630869      -0.48562980
H        2.67605902       2.99229872       1.26074953
H        5.01142795       0.21148991      -0.04435998
H        7.09242705       2.72499892       0.38636984
