17
Properties=species:S:1:pos:R:3 atomization_energy=-1585.07 smiles=C.C.C.O.C.N.N.H.H.H.H.H.H.H.H.H.H pbc="F F F"
C        2.03859924      -0.31470988       1.80899924
C        1.70544931       0.78899972       0.82124967
C        2.92475873       1.62399930       0.52552981
O        3.20807879       2.70032900       1.29465944
C        2.27280920       3.19777863       2.25919921
N        3.72867854       1.25741952      -0.43046984
N        4.79608796       2.06610915      -0.64504972
H        1.14778953      -0.91146964       2.02829920
H        2.42005912       0.09185996       2.75082881
H        2.80544894      -0.98387963       1.40409942
H        0.87617966       1.40023938       1.18338956
H        1.36205952       0.34073986      -0.11900995
H        2.71975901       4.07590831       2.73383884
H        2.08076921       2.45148900       3.03403885
H        1.34789945       3.51055861       1.76661932
H        5.60216773       1.52762945      -0.95985965
H        5.05703784       2.59302892       0.19162993
