14
Properties=species:S:1:pos:R:3 atomization_energy=-1433.18 smiles=C.N.C.C.O.C.O.H.H.H.H.H.H.H pbc="F F F"
C        1.10470952      -0.02767999       0.16870994
N        2.47705899       0.02973999      -0.26806988
C        3.25464879       1.22421954      -0.17713993
C        4.58526822       0.76346973      -0.71644969
O        4.60622837      -0.64698977      -0.46450983
C        3.31434860      -1.06261953      -0.27756990
O        2.99325884      -2.22855913      -0.11604995
H        0.68735974      -1.02055957      -0.02093999
H        0.52622980       0.72419973      -0.37403986
H        1.06485961       0.17477992       1.24278948
H        3.33282859       1.50758943       0.87817964
H        2.81285890       2.04158923      -0.75221972
H        4.67061826       0.91953964      -1.79712933
H        5.42798800       1.24947953      -0.21721991
