13
Properties=species:S:1:pos:R:3 atomization_energy=-1348.41 smiles=C.C.N.C.C.N.O.H.H.H.H.H.H pbc="F F F"
C        1.31137955       0.13028995       0.00515000
C        2.78314892       0.06625997      -0.00047000
N        3.66212844       1.04177962      -0.00618000
C        4.84933793       0.35508985      -0.00895000
C        6.15445777       1.04061959      -0.01586999
N        4.73190800      -0.97889962      -0.00529000
O        3.34897879      -1.17576954       0.00056000
H        0.86593968      -0.86909963      -0.00430000
H        0.95287960       0.67231973      -0.87484962
H        0.95892962       0.65311972       0.89909967
H        6.98499701       0.32772989      -0.00861000
H        6.25000754       1.68305932       0.86476969
H        6.24986774       1.66511933      -0.90932962
