6
Properties=species:S:1:pos:R:3 atomization_energy=-667.28 smiles=O.C.C.C.H.H pbc="F F F"
O        0.95621964      -0.01747999       0.00000000
C        2.17866920      -0.01634999       0.00000000
C        2.91929879       1.22104950       0.00000000
C        3.53531862       2.25213923       0.00000000
H        2.78474895      -0.93578964       0.00000000
H        4.07155837       3.17311880       0.00000000
