10
Properties=species:S:1:pos:R:3 atomization_energy=-1155.4 smiles=C.C.C.C.O.N.C.H.H.H pbc="F F F"
C        0.91857964       0.02456999      -0.00188000
C        2.11904913       0.01394999      -0.00062000
C        3.53912856       0.00013000       0.00087000
C        4.36701833       1.09048952       0.00195000
O        5.66015799       0.67424975       0.00323000
N        5.69596783      -0.71433969       0.00300000
C        4.41519846      -1.09769951       0.00157000
H       -0.14674995       0.03418999      -0.00300000
H        4.21956831       2.15986926       0.00200000
H        4.18588840      -2.15376915       0.00113000
