14
Properties=species:S:1:pos:R:3 atomization_energy=-1354.37 smiles=C.C.N.N.C.C.H.H.H.H.H.H.H.H pbc="F F F"
C        0.77246969       0.19851993      -0.03368999
C        2.25563907       0.02288999      -0.10458996
N        3.05289885       0.91508965       0.38644986
N        4.37888850       0.53830981       0.20513992
C        5.17609782       1.43155950       0.69470971
C        6.65931760       1.25585948       0.62320976
H        0.34279987      -0.64351977       0.51492981
H        0.36763986       0.19745992      -1.04893958
H        0.51116979       1.13442960       0.46543983
H        2.62938884      -0.89513965      -0.59132979
H        4.80257792       2.35047903       1.18007948
H        6.92036741       0.31804986       0.12713995
H        7.06513742       1.26051953       1.63808935
H        7.08857697       2.09588916       0.07116998
