14
Properties=species:S:1:pos:R:3 atomization_energy=-1373.65 smiles=C.N.C.C.N.C.H.H.H.H.H.H.H.H pbc="F F F"
C        1.12679961       0.00733000      -0.16867993
N        2.56831888       0.00306000      -0.24396990
C        3.29450881      -1.19507957       0.12611995
C        4.66943836      -0.62210978       0.50748979
N        4.52400825       0.86149966       0.58013978
C        3.32233867       1.07036964       0.13616995
H        0.71522973      -0.94133960      -0.52741980
H        0.71374975       0.80918969      -0.78846970
H        0.79346971       0.15932993       0.86362965
H        3.36733867      -1.89841926      -0.70926973
H        2.83370878      -1.69852937       0.98248960
H        5.42553787      -0.87456966      -0.24378991
H        4.99939781      -1.01250958       1.47605938
H        2.85211887       2.06411914       0.06531997
