14
Properties=species:S:1:pos:R:3 atomization_energy=-1412.54 smiles=C.C.N.C.O.C.O.H.H.H.H.H.H.H pbc="F F F"
C        0.89230962       0.03052999       0.19231993
C        2.39074908      -0.00663000       0.00192000
N        3.08221873       0.90305963       0.93776962
C        4.03893849      -0.01518999       1.24715947
O        5.15700795       0.12912995       1.67987932
C        3.17368881      -1.17567958       0.66932973
O        3.85567838      -2.08283922      -0.22572991
H        0.41460984      -0.76911967      -0.38615984
H        0.48109982       0.98415959      -0.16247993
H        0.60407977      -0.09454996       1.23995946
H        2.68661883       0.18744992      -1.03519958
H        3.39155869       1.85232931       0.76511972
H        2.63202899      -1.72528936       1.45070942
H        4.80603788      -1.90871929      -0.07752997
