16
Properties=species:S:1:pos:R:3 atomization_energy=-1571.53 smiles=C.N.C.C.O.C.C.H.H.H.H.H.H.H.H.H pbc="F F F"
C        1.05588961       0.02626999       0.26795990
N        2.50177912       0.00621000       0.03137999
C        2.90380893      -1.26483944      -0.62465978
C        2.79905890      -0.98840961      -2.08917916
O        3.90349844      -0.30922987      -2.69871887
C        2.79090886       0.48126980      -2.26325922
C        2.89086887       1.09325962      -0.90398966
H        0.76245971       0.96601962       0.74914968
H        0.77214967      -0.77817969       0.95579964
H        0.46980983      -0.08588996      -0.65164976
H        2.28419918      -2.11362918      -0.31553989
H        3.94129841      -1.49660936      -0.35663986
H        2.14993927      -1.62165931      -2.66850902
H        2.13549911       0.95447963      -2.97345891
H        3.92547851       1.39246948      -0.69880971
H        2.26166903       1.98411928      -0.80071968
