17
Properties=species:S:1:pos:R:3 atomization_energy=-1570.4 smiles=C.C.N.O.C.N.C.H.H.H.H.H.H.H.H.H.H pbc="F F F"
C        1.61063937       2.16345918       1.18800950
C        2.14191917       0.86466964       0.60190978
N        3.45510856       1.04889959       0.00630000
O        3.41925860       1.72017927      -1.22644951
C        4.59356841       1.31004951       0.73125971
N        5.65734752       1.84132931       0.23362992
C        6.74209740       2.03012923       1.19104958
H        0.61493979       2.00758924       1.61452931
H        1.53625943       2.94256877       0.42263984
H        2.26526903       2.53610904       1.98242917
H        1.44531938       0.48988981      -0.15686994
H        2.19828922       0.10091996       1.38608941
H        4.36736807       1.93382928      -1.37959944
H        4.49825835       1.01596961       1.79225934
H        6.84937754       3.09362890       1.42153943
H        7.68004699       1.68342937       0.74458973
H        6.60431746       1.48369946       2.13172928
