16
Properties=species:S:1:pos:R:3 atomization_energy=-1521.04 smiles=C.C.C.N.O.C.O.H.H.H.H.H.H.H.H.H pbc="F F F"
C        0.90349963      -0.54527977       0.15217994
C        2.35343913      -0.07535997       0.05842998
C        2.99743871      -0.52125979      -1.25521957
N        2.46117902       1.37172949       0.25629989
O        1.72466938       2.11036918      -0.71021969
C        3.64662849       1.98096918       0.61289975
O        3.94423832       3.13161889       0.30804988
H        0.45463983      -0.22912991       1.10013955
H        0.84490964      -1.63734939       0.09693996
H        0.29228990      -0.13330995      -0.65807973
H        2.91595893      -0.54345977       0.87631965
H        2.48850902      -0.08149997      -2.11965927
H        2.95758879      -1.61074939      -1.35678946
H        4.04837846      -0.21662992      -1.29992951
H        2.23711922       2.94611882      -0.77069971
H        4.30446844       1.32945946       1.21028946
