17
Properties=species:S:1:pos:R:3 atomization_energy=-1574.25 smiles=C.C.C.N.C.N.O.H.H.H.H.H.H.H.H.H.H pbc="F F F"
C        1.19508953      -0.03023999      -0.17640992
C        2.31912915      -0.59897977      -1.03675961
C        2.51122893      -2.08656917      -0.75898971
N        1.93945930      -0.41934982      -2.44456907
C        2.93177884      -0.22325990      -3.24291867
N        2.80439899      -0.03986998      -4.59596807
O        1.51587940       0.36610985      -4.96786801
H        1.06095957       1.03857962      -0.37515987
H        1.41688946      -0.15267994       0.88869965
H        0.24111991      -0.52641981      -0.38696985
H        3.24343872      -0.05891997      -0.79367971
H        1.60471943      -2.65558890      -0.99315962
H        2.76109895      -2.25827921       0.29300989
H        3.32308860      -2.49492908      -1.37030949
H        3.98657850      -0.20009992      -2.91660894
H        3.54631849       0.47046983      -5.06945809
H        0.95599961       0.00092000      -4.24514839
