17
Properties=species:S:1:pos:R:3 atomization_energy=-1584.46 smiles=C.C.C.N.C.N.O.H.H.H.H.H.H.H.H.H.H pbc="F F F"
C        2.46971892      -1.20475950       1.44691941
C        1.89920930      -0.29902989       0.36984984
C        2.56557906       1.06512960       0.41996983
N        2.11318912       2.03217918       1.28919950
C        0.76177968       2.13941908       1.77132934
N        3.58616866       1.25105951      -0.36784986
O        4.10559836       2.54888912      -0.21815991
H        2.00242919      -2.19283912       1.40070948
H        2.29699919      -0.78927968       2.44446914
H        3.54985870      -1.33011943       1.32131950
H        0.81666967      -0.19803991       0.49104981
H        2.07396914      -0.74454967      -0.61678976
H        2.58231897       2.91558876       1.10109955
H        0.48558980       1.26565952       2.36860903
H        0.05908998       2.24333918       0.93885963
H        0.66674977       3.02298876       2.40992903
H        4.87682790       2.52498906      -0.81400966
