12
Properties=species:S:1:pos:R:3 atomization_energy=-1299.39 smiles=C.C.C.C.O.C.N.H.H.H.H.H pbc="F F F"
C        0.99999962       0.00000000       0.00000000
C        2.44399905       0.00000000       0.00000000
C        3.63415853       0.00000000       0.00000000
C        5.07815797       0.00000000       0.00000000
O        5.54625768      -0.72047973      -1.14561961
C        5.56017779       1.36116943       0.00000000
N        5.94438745       2.44615901       0.00000000
H        0.60601976       1.02088962       0.01165000
H        0.60592973      -0.52051980       0.87824966
H        0.60597976      -0.50029980      -0.88994963
H        5.45546788      -0.53062980       0.88008966
H        5.16817815      -0.27713990      -1.92530919
