17
Properties=species:S:1:pos:R:3 atomization_energy=-1576.99 smiles=C.C.N.C.C.N.O.H.H.H.H.H.H.H.H.H.H pbc="F F F"
C        2.11680918       0.03827999       0.78146971
C        3.49049853      -0.16431993       0.16425994
N        4.16683840       1.12861955       0.12325996
C        5.37168785       1.18483959      -0.35825986
C        6.12629760      -0.01729999      -0.88339968
N        6.02903752       2.40032909      -0.40207983
O        5.15660775       3.49585855      -0.34531986
H        1.57277933      -0.91030961       0.82563967
H        1.52449941       0.74814969       0.19407992
H        2.20018902       0.43502984       1.79904932
H        3.36767856      -0.57261980      -0.84467964
H        4.04928837      -0.88063968       0.77598971
H        5.58003777      -0.46118981      -1.71987937
H        6.24338737      -0.75808971      -0.08802996
H        7.12131696       0.27123989      -1.23421955
H        6.78269749       2.51130892      -1.07569963
H        4.37077807       3.11627866       0.11168996
