15
Properties=species:S:1:pos:R:3 atomization_energy=-1467.11 smiles=C.C.C.N.N.C.O.H.H.H.H.H.H.H.H pbc="F F F"
C        0.99278964      -0.08015997       0.19739992
C        2.47705899       0.08899996      -0.05895998
C        3.23368865       1.14246951       0.78697968
N        3.79313858       0.02117999       1.56694935
N        5.13196811       0.04328998       1.98932916
C        3.39838879      -0.92394963       0.64448973
O        3.76504856      -2.06434914       0.46579981
H        0.61414974      -0.97511963      -0.30672987
H        0.43794982       0.78143969      -0.18765992
H        0.77178972      -0.17358993       1.26588952
H        2.69253903       0.17084993      -1.13158961
H        2.61135902       1.80693934       1.39267941
H        3.98823834       1.72106937       0.24399991
H        5.55031769      -0.85713970       1.72387933
H        5.12695782       0.03101999       3.01063892
