16
Properties=species:S:1:pos:R:3 atomization_energy=-1510.68 smiles=C.C.C.N.C.N.H.H.H.H.H.H.H.H.H.H pbc="F F F"
C        1.04316959      -0.50697980       0.50109982
C        2.30543916      -0.27089990      -0.32699986
C        2.81983889      -1.58318939      -0.91186965
N        1.99717919       0.66051971      -1.39976942
C        2.90565877       1.41172942      -2.08156923
N        4.13026828       1.65222937      -1.79077929
H        0.67002976       0.43610982       0.91355964
H        1.24706952      -1.18497950       1.33543946
H        0.24227991      -0.94294960      -0.10519996
H        3.06570870       0.15336994       0.33808988
H        2.08532922      -2.03288923      -1.58953943
H        3.03696893      -2.30506899      -0.11765995
H        3.74063854      -1.42409945      -1.48264939
H        1.13704956       0.45943983      -1.90036927
H        2.47590911       1.85703933      -2.99530878
H        4.38020820       1.19361958      -0.91453963
