14
Properties=species:S:1:pos:R:3 atomization_energy=-1485.72 smiles=C.C.C.C.C.C.H.H.H.H.H.H.H.H pbc="F F F"
C        1.05613961      -0.00072000       0.19225992
C        2.38253898      -0.00136000       0.01026000
C        3.24786865      -1.22647954      -0.14977994
C        4.59276801      -0.67129974      -0.50713980
C        4.59405843       0.66855974      -0.50207981
C        3.25014872       1.22362946      -0.14012994
H        0.49950981       0.92790965       0.26988989
H        0.49781980      -0.92872960       0.26248989
H        2.87645874      -1.87432932      -0.94949962
H        3.31062873      -1.78911932       0.78701968
H        5.44981768      -1.28879943      -0.73441971
H        5.45210784       1.28673953      -0.72463973
H        3.31427871       1.77871924       0.80136969
H        2.87993890       1.87886927      -0.93468961
