16
Properties=species:S:1:pos:R:3 atomization_energy=-1563.71 smiles=C.C.C.C.C.N.O.H.H.H.H.H.H.H.H.H pbc="F F F"
C        0.85901969       0.09657996       0.21858992
C        2.31019914      -0.26335990       0.04948998
C        2.72642888      -1.54000946       0.08591997
C        3.27333872       0.88574964      -0.12057995
C        3.02732886       1.57143933      -1.44075937
N        2.61148897       2.79638899      -1.48651939
O        2.47706908       3.17976873      -2.82535889
H        0.73386969       0.79162970       1.05549957
H        0.23973991      -0.78368966       0.42358984
H        0.47033981       0.56945979      -0.68935972
H        2.02946926      -2.36102900       0.22767991
H        3.77502852      -1.80281927      -0.01466999
H        4.31210853       0.53739978      -0.12356995
H        3.16126882       1.59923942       0.70266975
H        3.22476873       0.98725960      -2.35738912
H        2.17031905       4.10285829      -2.74869888
