18
Properties=species:S:1:pos:R:3 atomization_energy=-1718.74 smiles=C.C.C.O.C.C.N.H.H.H.H.H.H.H.H.H.H.H pbc="F F F"
C        0.95815963       0.18311993       0.03142999
C        2.47970897       0.02162999       0.03896999
C        2.88946894      -0.90880963       1.18159952
O        2.85005884      -0.61432978      -1.18801959
C        3.15383867       1.38118951       0.06129997
C        4.08736843       1.86406928       1.14674955
N        4.61543795       1.42648941      -0.14094994
H        0.62950977       0.76846967      -0.83576970
H        0.60432977       0.68896974       0.93639965
H        0.45839982      -0.78954967      -0.04553998
H        2.62135891      -0.49384980       2.15876910
H        3.96809852      -1.10199961       1.17114948
H        2.40564899      -1.88722925       1.07910963
H        3.81595841      -0.48032980      -1.25413946
H        2.60357889       2.12018916      -0.51287981
H        4.32119851       1.22993950       1.99165919
H        4.12925845       2.92723889       1.35357942
H        4.86915804       2.22955912      -0.72177974
