14
Properties=species:S:1:pos:R:3 atomization_energy=-1457.93 smiles=C.C.C.N.O.C.C.H.H.H.H.H.H.H pbc="F F F"
C        0.93689965      -0.06832997       0.01445999
C        2.45502895       0.02450999       0.00398000
C        2.93642880       1.43293950       0.00066000
N        3.15044885       2.07978916       1.15388951
O        3.58436853       3.34537879       0.79772969
C        3.62615863       3.44251875      -0.55274979
C        3.22558881       2.25743920      -1.11060953
H        0.62053977      -1.11621961       0.01249000
H        0.50434981       0.41952983      -0.86560963
H        0.51707980       0.41233984       0.90472962
H        2.84131884      -0.49468982      -0.88150966
H        2.85689878      -0.50498979       0.87612964
H        3.95332856       4.39453809      -0.94371966
H        3.15101887       2.02040918      -2.16074914
