16
Properties=species:S:1:pos:R:3 atomization_energy=-1562.02 smiles=C.C.N.O.C.C.C.H.H.H.H.H.H.H.H.H pbc="F F F"
C        0.98402964       0.12785995      -0.38117986
C        2.43361915       0.04940998       0.00608000
N        3.07632882      -1.03425958       0.31526987
O        2.23478919      -2.15129908       0.26026990
C        3.20602885       1.31642945       0.01727999
C        2.79906900       2.45030910       0.92949965
C        4.05456840       1.68248931       1.21309955
H        0.71055971       1.14638960      -0.66875971
H        0.36477984      -0.17967993       0.46603981
H        0.79215966      -0.53668978      -1.22822946
H        2.83722880      -2.87638884       0.51051979
H        3.60570869       1.58793940      -0.95522962
H        1.96109923       2.30631904       1.60217933
H        2.89659881       3.46219857       0.55327981
H        5.00641817       2.16558911       1.02571962
H        4.06142828       1.00975961       2.06395916
