15
Properties=species:S:1:pos:R:3 atomization_energy=-1469.98 smiles=C.C.C.C.O.N.N.H.H.H.H.H.H.H.H pbc="F F F"
C        0.97845961       0.07470997       0.04231998
C        2.37683907      -0.46377980      -0.00211000
C        2.67042901      -1.74635927       0.27140990
C        3.42013873       0.51867980      -0.43346984
O        3.14481884       1.45991939      -1.17300954
N        4.67310826       0.33211988       0.12618994
N        5.70404799       1.25925951      -0.14563994
H        0.92372966       0.94469965       0.70520972
H        0.26629991      -0.66943975       0.41467983
H        0.64986975       0.37660986      -0.95791960
H        1.89060923      -2.44547898       0.56033978
H        3.67231859      -2.15378909       0.18513992
H        4.82379797      -0.36774985       0.84773966
H        5.28077795       2.19490924      -0.09689997
H        5.93335755       1.16776950      -1.14131951
