16
Properties=species:S:1:pos:R:3 atomization_energy=-1610.4 smiles=C.C.O.N.C.C.C.H.H.H.H.H.H.H.H.H pbc="F F F"
C        0.78510972      -1.34842947       0.03712998
C        2.28700914      -1.38583947       0.12377996
O        2.88793880      -2.33957908       0.60651975
N        2.90501885      -0.26029990      -0.36793985
C        4.33164805      -0.09911996      -0.25358990
C        4.74781800       0.93532965      -1.24913952
C        5.27843782       2.12522923      -0.93725966
H        0.44283981      -0.59116974      -0.67400972
H        0.37414985      -1.12470955       1.02504962
H        0.42135983      -2.32264916      -0.30199989
H        2.34835920       0.57047978      -0.51727980
H        4.83657804      -1.04907956      -0.45583982
H        4.55702832       0.19936992       0.77574968
H        4.62022821       0.67427971      -2.29802920
H        5.44220788       2.42697905       0.09326996
H        5.57083777       2.82400892      -1.71628933
