15
Properties=species:S:1:pos:R:3 atomization_energy=-1452.85 smiles=C.N.C.C.C.C.H.H.H.H.H.H.H.H.H pbc="F F F"
C        0.97647963       0.04369998       0.13356994
N        2.42385898       0.00564000      -0.08060997
C        2.72489900      -0.75423970      -1.29673954
C        2.95761882       1.37448949      -0.15489995
C        4.42897828       1.39595947      -0.09070997
C        5.62833801       1.41783949      -0.03603999
H        0.73807971       0.55889979       1.07089953
H        0.57348977      -0.97109962       0.22629991
H        0.44981983       0.55093981      -0.68309976
H        2.32007917      -1.77020924      -1.22202955
H        3.80449854      -0.86764967      -1.44054943
H        2.30391912      -0.28419987      -2.19311921
H        2.58803907       1.95742919       0.69883975
H        2.61009888       1.88609931      -1.06113961
H        6.69223724       1.43007945       0.01758999
