14
Properties=species:S:1:pos:R:3 atomization_energy=-1366.19 smiles=C.C.O.C.O.N.C.H.H.H.H.H.H.H pbc="F F F"
C        1.66771935      -1.74320929       1.65520940
C        1.60944937      -0.85959967       0.43286982
O        0.67155971      -0.93874962      -0.36162987
C        2.69633889       0.18427993       0.29094989
O        3.96263832      -0.45928982       0.37089985
N        4.93786784       0.50055980       0.67669976
C        6.09471783      -0.07027997       0.66939975
H        2.62119893      -2.27510920       1.69095931
H        0.86222966      -2.48198904       1.61257942
H        1.54293940      -1.13161951       2.55227893
H        2.57086894       0.92208963       1.09143955
H        2.60392887       0.67554976      -0.68287973
H        6.99804708       0.51570979       0.89634964
H        6.23529763      -1.14106957       0.44217984
