20
Properties=species:S:1:pos:R:3 atomization_energy=-1867.54 smiles=C.C.N.C.C.C.O.H.H.H.H.H.H.H.H.H.H.H.H.H pbc="F F F"
C        1.35564943      -0.46556981       0.35731986
C        2.82603892      -0.15220994       0.64677977
N        3.65574850      -1.19771958       0.02162999
C        3.26063863       1.25601946       0.15169994
C        2.39283914       2.36631912       0.75445974
C        4.73603816       1.55035945       0.48335979
O        5.61278785       0.68984975      -0.23514991
H        0.69091976       0.18695992       0.93050961
H        1.10936958      -1.49470943       0.64314973
H        1.12262958      -0.34567985      -0.70590975
H        2.98425895      -0.21044991       1.73088935
H        3.43059862      -1.24793956      -0.97584963
H        3.38405865      -2.10832921       0.39920984
H        3.14593869       1.28724948      -0.94019963
H        2.40192912       2.32644902       1.84921933
H        1.35491943       2.29151906       0.41591985
H        2.75551890       3.35425857       0.44946981
H        4.93432814       1.42788946       1.55441934
H        4.99937813       2.57746891       0.20932991
H        5.22995792      -0.21086992      -0.13517994
