14
Properties=species:S:1:pos:R:3 atomization_energy=-1362.85 smiles=C.N.C.C.C.N.H.H.H.H.H.H.H.H pbc="F F F"
C        1.00558958       0.05600998       0.00649000
N        2.47466891       0.00123000      -0.05940998
C        3.10504865      -1.23967949      -0.10549996
C        2.57207886      -2.46745905      -0.11183996
C        3.15003881       1.21377958      -0.04734998
N        4.40689828       1.48518935      -0.11433996
H        0.62028978       1.08142957      -0.00825000
H        0.64907977      -0.41357982       0.92995966
H        0.56413977      -0.46302981      -0.85167969
H        4.18903825      -1.17548958      -0.13671995
H        1.50422939      -2.64344899      -0.08042997
H        3.21563863      -3.34178862      -0.14904995
H        2.46825893       2.07798916       0.03371999
H        4.95538821       0.63033976      -0.19288993
