17
Properties=species:S:1:pos:R:3 atomization_energy=-1615.42 smiles=C.N.C.C.C.C.H.H.H.H.H.H.H.H.H.H.H pbc="F F F"
C        1.16014960      -0.11940995       0.54599980
N        2.61245893      -0.09408997       0.43381982
C        3.08059877       1.21832949      -0.02483999
C        4.61250839       1.23540954      -0.12675995
C        5.12257786       2.57035897      -0.59538980
C        5.83528749       2.75264888      -1.71430929
H        0.83855966      -1.10927962       0.88369964
H        0.67875973       0.08095997      -0.41647984
H        0.80801969       0.60997978       1.28228954
H        2.91021890      -0.80870969      -0.23034991
H        2.75557895       1.99412926       0.67979971
H        2.64490898       1.45082940      -1.00491957
H        4.94770826       0.43879983      -0.80302965
H        5.05198819       1.02395961       0.85619963
H        4.90096793       3.42912854       0.03513999
H        6.09119782       1.92622919      -2.37028905
H        6.18412738       3.74153861      -1.99585925
