16
Properties=species:S:1:pos:R:3 atomization_energy=-1622.07 smiles=C.C.C.C.C.N.C.H.H.H.H.H.H.H.H.H pbc="F F F"
C       -1.33917951       0.93403967       0.56561975
C       -1.32565947      -0.37254985      -0.17013993
C       -0.38141986      -1.45973947       0.19916992
C        0.87286965      -0.94149965      -0.39826984
C        1.57918943       0.29065987       0.12529995
N        0.65109974       0.31158986      -0.99570961
C       -0.62879978       0.78167972      -0.75166971
H       -2.26200917       1.50446935       0.56783976
H       -0.77966971       1.03153957       1.48512942
H       -2.24025922      -0.72510970      -0.62618973
H       -0.30110988      -1.59682941       1.28204944
H       -0.67498971      -2.40812916      -0.26233990
H        1.44670947      -1.67868933      -0.94182963
H        1.29661943       0.70518972       1.08133961
H        2.62375908       0.41948983      -0.13028995
H       -1.09864954       1.28593951      -1.59200938
