14
Properties=species:S:1:pos:R:3 atomization_energy=-1371.88 smiles=C.C.C.N.C.N.H.H.H.H.H.H.H.H pbc="F F F"
C        0.98516961      -0.29961987       0.15469994
C        2.48860894      -0.31522987       0.02299999
C        3.13955874      -1.49056943       0.02804999
N        3.16046867       0.88918968      -0.10047996
C        2.68253889       2.16238904      -0.12690995
N        3.38596879       3.23317868      -0.24708990
H        0.68531971       0.25350989       1.05096959
H        0.56631978      -1.30847951       0.23769991
H        0.52856980       0.17185993      -0.72188970
H        2.60884908      -2.43311903       0.12515995
H        4.21896827      -1.55121940      -0.06392997
H        4.16515837       0.79362968      -0.18408993
H        1.58782938       2.24873907      -0.03462998
H        4.37749815       2.99933877      -0.32232987
