14
Properties=species:S:1:pos:R:3 atomization_energy=-1482.75 smiles=C.C.C.N.C.C.O.H.H.H.H.H.H.H pbc="F F F"
C        0.97610959      -0.10061996      -0.00248000
C        2.48488908       0.07679997       0.01151999
C        2.86126890       1.51135938      -0.00014000
N        3.09936868       2.31270908       1.01900963
C        3.39445873       3.51353864       0.42614983
C        3.32297858       3.39081860      -0.93787964
O        2.98027893       2.10546916      -1.22786951
H        0.71853969      -1.16420949       0.01283999
H        0.53346978       0.34395986      -0.90028966
H        0.51368979       0.37433985       0.86950967
H        2.92428889      -0.43065984      -0.85477964
H        2.90046882      -0.39921984       0.90701965
H        3.63951856       4.39109831       1.00766961
H        3.47099862       4.05370845      -1.77703934
