16
Properties=species:S:1:pos:R:3 atomization_energy=-1515.68 smiles=C.C.C.O.N.O.C.H.H.H.H.H.H.H.H.H pbc="F F F"
C        0.59519979       0.25669990      -0.22733991
C        2.07278924       0.13053995       0.10306996
C        2.79476902       1.46298937       0.02487999
O        2.23091918       2.52370898      -0.23800991
N        4.14670842       1.43850946       0.22869991
O        4.70190834       0.31836988       0.88086968
C        5.69749797      -0.24068991       0.02710999
H        0.10021996      -0.71521970      -0.14045994
H        0.45187983       0.62385976      -1.24899948
H        0.09715996       0.95590966       0.45270981
H        2.54347888      -0.56851980      -0.59681975
H        2.17862908      -0.26570989       1.11904951
H        4.58202829       2.33613905       0.41457985
H        6.07698752      -1.15416960       0.49257982
H        6.52717727       0.46334983      -0.09225996
H        5.27354815      -0.49464982      -0.94979964
