15
Properties=species:S:1:pos:R:3 atomization_energy=-1485.74 smiles=C.C.C.O.C.N.N.H.H.H.H.H.H.H.H pbc="F F F"
C        1.86330925      -0.08851997      -0.07282997
C        3.30601864      -0.53086976       0.09797996
C        4.22980842       0.63638977       0.35144988
O        3.88968834       1.81102925       0.41462984
C        5.70693768       0.30196989       0.58736976
N        6.29109766      -0.82178966       0.07883997
N        6.43060758       1.12235959       1.28323944
H        1.21714947      -0.95436961      -0.24757990
H        1.76004925       0.59265976      -0.92412960
H        1.50263945       0.43371984       0.81942967
H        3.63225848      -1.04886956      -0.80916969
H        3.37798856      -1.21862952       0.94700961
H        6.01269756      -1.08587955      -0.85900966
H        7.30227732      -0.76672972       0.17356993
H        5.83245785       1.92167928       1.55325937
