13
Properties=species:S:1:pos:R:3 atomization_energy=-1327.39 smiles=C.C.C.C.N.N.O.H.H.H.H.H.H pbc="F F F"
C        1.13618961       0.08288997       0.00565000
C        2.60273888       0.18089992       0.00032000
C        3.51320860       1.20477956      -0.00013000
C        3.31669882       2.66432890       0.00503000
N        4.76755837       0.65941973      -0.00619000
N        4.66629834      -0.66588976      -0.00958999
O        3.30748872      -0.98255962      -0.00548000
H        0.80422968      -0.95987965      -0.00360000
H        0.71619969       0.57950977      -0.87442969
H        0.72399969       0.56146979       0.89928968
H        2.25439911       2.92683895      -0.00191000
H        3.78348843       3.11432890      -0.87651968
H        3.77008863       3.10603880       0.89767968
