16
Properties=species:S:1:pos:R:3 atomization_energy=-1603.19 smiles=C.C.C.C.O.C.N.H.H.H.H.H.H.H.H.H pbc="F F F"
C        2.05010920      -0.20725991       1.51996943
C        2.33596898       0.19998992       0.08117996
C        2.95741872       1.56976940      -0.00774000
C        2.02693926       2.72842886       0.00631000
O        0.82158969       2.60934895       0.19471993
C        4.27946848       1.75410937      -0.14984995
N        5.02319820       2.90253895      -0.24148991
H        1.59693942      -1.20325951       1.54597936
H        1.36010951       0.48963982       2.00605923
H        2.97204888      -0.24157991       2.10997921
H        1.40974950       0.16579993      -0.50538980
H        3.00059890      -0.54736977      -0.37109986
H        2.47823914       3.71787852      -0.16547994
H        4.92116805       0.87301966      -0.20688991
H        4.60828840       3.73820859       0.16122994
H        5.99775753       2.78988894       0.03564999
