14
Properties=species:S:1:pos:R:3 atomization_energy=-1449.08 smiles=C.C.N.C.O.C.C.H.H.H.H.H.H.H pbc="F F F"
C        1.10704952      -0.08153997       0.57217980
C        2.51999896       0.00000000       0.00000000
N        2.55533896      -0.50456981      -1.35789946
C        2.63172896      -1.84199925      -1.63305938
O        2.70433905      -2.73772903      -0.80559971
C        3.00201878       1.36116943       0.00000000
C        3.39929870       2.48306901       0.00000000
H        1.07575956       0.29829990       1.59966939
H        0.74569968      -1.11568959       0.58431977
H        0.39861983       0.50677980      -0.02334999
H        3.17759868      -0.62766977       0.61328973
H        2.43594893       0.14853994      -2.12026915
H        2.62150904      -2.03894922      -2.71804896
H        3.75856844       3.48656872       0.00465000
