16
Properties=species:S:1:pos:R:3 atomization_energy=-1610.96 smiles=C.C.C.C.N.C.O.H.H.H.H.H.H.H.H.H pbc="F F F"
C        2.20457908      -0.54090977      -1.38372948
C        2.36578898       0.06088998       0.00266000
C        3.30166870       1.25793945      -0.04498998
C        2.74513899       2.57168901      -0.65105975
N        3.24379880       3.25367883       0.54810979
C        3.38895867       2.09365918       1.24848951
O        3.46640872       1.90655921       2.43688912
H        1.55571934      -1.42100940      -1.34391943
H        3.17260884      -0.84716965      -1.79373926
H        1.76042926       0.18006993      -2.07746923
H        2.77552902      -0.69953971       0.67730970
H        1.38293943       0.34592988       0.39519986
H        4.30208846       0.99129962      -0.41290982
H        1.65755936       2.64540885      -0.74805973
H        3.23332882       2.90749877      -1.56904938
H        2.84946889       4.04222839       1.04141961
