20
Properties=species:S:1:pos:R:3 atomization_energy=-1858.92 smiles=C.C.C.O.C.C.N.H.H.H.H.H.H.H.H.H.H.H.H.H pbc="F F F"
C        1.01710957       0.09887996       0.04130998
C        2.50748913      -0.11951995      -0.19665992
C        2.71912894      -1.06600960      -1.37438944
O        3.08113876       1.16688949      -0.44878981
C        4.51362835       1.16964950      -0.42565983
C        5.00677800       2.62123905      -0.46190981
N        4.62861822       3.34145857       0.75881970
H        0.86100964       0.78307971       0.88256964
H        0.50516980      -0.84343968       0.26038990
H        0.54328976       0.56120976      -0.83203967
H        2.94569894      -0.54513979       0.71404971
H        2.40073913      -0.60056978      -2.31336918
H        2.16577911      -2.00039919      -1.23703948
H        3.77740850      -1.32094946      -1.48818945
H        4.89105787       0.64617972      -1.30971946
H        4.88172817       0.66425976       0.47494981
H        4.56249835       3.13697866      -1.32044947
H        6.09555759       2.64450904      -0.56804977
H        3.62497847       3.19852881       0.89662966
H        4.75430796       4.34089852       0.60857978
