16
Properties=species:S:1:pos:R:3 atomization_energy=-1574.95 smiles=C.N.C.C.C.C.O.H.H.H.H.H.H.H.H.H pbc="F F F"
C        1.01771958      -0.05305998       0.18687992
N        2.46428901       0.01088000      -0.00201000
C        3.05580874       1.05284959       0.87609967
C        4.18656843       0.05816998       1.19199948
C        3.14968883      -1.03230956       0.83160970
C        3.64383847      -2.24532906      -0.00209000
O        4.25423837      -3.22392872       0.43307983
H        0.61600974      -0.93891962      -0.31656987
H        0.54461980       0.82299966      -0.26951991
H        0.71022972      -0.09372996       1.23866954
H        2.46326909       1.33467943       1.75591934
H        3.36919860       1.96308923       0.35678987
H        5.04247782       0.11919996       0.50927980
H        4.54745840       0.05788998       2.22352916
H        2.57844897      -1.36263951       1.71175935
H        3.39964868      -2.20145926      -1.07731960
