16
Properties=species:S:1:pos:R:3 atomization_energy=-1590.5 smiles=C.C.C.O.C.C.N.H.H.H.H.H.H.H.H.H pbc="F F F"
C        2.81344885      -0.33523986      -1.84152928
C        2.46842901       0.06298998      -0.41303984
C        3.02738892       1.43281939       0.00000000
O        2.48051895       1.70870930       1.30766952
C        2.73870884       3.03367878       1.75916937
C        4.47138809       1.43281939       0.00000000
N        5.62239763       1.43281939       0.00000000
H        2.32248919      -1.27983953      -2.09622917
H        3.89083847      -0.47686980      -1.96949921
H        2.47688892       0.42455983      -2.55332888
H        2.82238895      -0.71395975       0.27783990
H        1.37591945       0.07756997      -0.30438988
H        2.64215908       2.18911925      -0.69506972
H        2.17585924       3.19361869       2.68294893
H        2.40952909       3.76939850       1.01930959
H        3.80149857       3.16729878       1.98092918
