12
Properties=species:S:1:pos:R:3 atomization_energy=-1257.89 smiles=C.N.O.C.O.C.C.H.H.H.H.H pbc="F F F"
C        0.98890960       0.00991999      -0.01610999
N        2.40346910      -0.05796998       0.25304990
O        3.12347868       1.12554956       0.06300997
C        4.45131817       0.76058968      -0.02803999
O        5.40879771       1.50426938      -0.13168995
C        4.51038841      -0.71747970      -0.01456999
C        3.24524870      -1.11503959       0.10921996
H        0.62663976       1.04147960       0.04227998
H        0.44064983      -0.57768977       0.72662974
H        0.75418968      -0.38236985      -1.01149962
H        5.40907779      -1.29001945      -0.13098995
H        2.86686889      -2.12748910       0.10510996
