16
Properties=species:S:1:pos:R:3 atomization_energy=-1505.83 smiles=C.C.C.O.C.N.O.H.H.H.H.H.H.H.H.H pbc="F F F"
C        3.23670880      -0.88730968      -1.05643956
C        2.91882895      -0.05172998       0.17376994
C        3.10162881       1.44715938      -0.05511998
O        2.62259886       2.14787923       1.08821955
C        4.56112819       1.79228923      -0.29819988
N        5.34805804       2.08532922       0.68938975
O        6.63137746       2.31848898       0.18327992
H        3.03768883      -1.94476923      -0.85505966
H        4.28936844      -0.79516966      -1.34173941
H        2.62037885      -0.58270977      -1.90815924
H        3.54561853      -0.38401985       1.01065961
H        1.88343923      -0.24468991       0.48080980
H        2.52005901       1.78247935      -0.91990962
H        3.35578871       2.13616905       1.73501938
H        4.92231818       1.73399933      -1.34014947
H        7.13780731       2.54813894       0.98579962
