12
Properties=species:S:1:pos:R:3 atomization_energy=-1309.2 smiles=C.C.N.C.O.C.C.H.H.H.H.H pbc="F F F"
C        0.64813977       0.33145988      -0.02483999
C        1.97113923       0.18338992      -0.16736993
N        2.49634896      -1.06100953      -0.39611986
C        3.81051840      -1.39504944      -0.56462980
O        4.17683828      -2.54726890      -0.76543968
C        2.81793883       1.32525953      -0.07898997
C        3.52759854       2.29135908      -0.00366000
H        0.20719992       1.30754953       0.15729993
H       -0.03652998      -0.50770979      -0.08405996
H        1.86690927      -1.85196923      -0.45356982
H        4.52032824      -0.55612976      -0.50737981
H        4.15525841       3.14919880       0.06344997
