13
Properties=species:S:1:pos:R:3 atomization_energy=-1322.92 smiles=C.C.C.C.N.N.O.H.H.H.H.H.H pbc="F F F"
C        0.96484963      -0.14727993      -0.01156999
C        2.47136892       0.05216998       0.02285999
C        2.83096897       1.48329939       0.00587000
C        3.12352889       2.42597907       0.95148963
N        3.38416866       3.60633851       0.32159988
N        3.26421871       3.43101875      -0.99105959
O        2.91593874       2.09554914      -1.20629947
H        0.72301970      -1.21458957       0.00292000
H        0.52798978       0.28813990      -0.91665966
H        0.48310980       0.32227988       0.85281966
H        2.92689875      -0.45554983      -0.83533966
H        2.87933885      -0.42006985       0.92412960
H        3.16075885       2.32830921       2.02478915
