16
Properties=species:S:1:pos:R:3 atomization_energy=-1574.11 smiles=C.C.N.O.C.C.C.H.H.H.H.H.H.H.H.H pbc="F F F"
C        1.04926957       0.08136997       0.11466995
C        2.52942908       0.00108000      -0.15585994
N        3.15630874       1.11233952      -0.39977983
O        4.53201825       0.98615963      -0.67703971
C        5.18784788       0.05227998       0.17860994
C        4.68551791      -1.32001950      -0.20175992
C        3.17682882      -1.36278952      -0.05752997
H        0.59394974      -0.91205965       0.06837997
H        0.56967976       0.72737973      -0.62715975
H        0.88981962       0.50089981       1.11363952
H        6.26533767       0.12971995       0.00455000
H        4.99297800       0.29884988       1.22914946
H        5.15777807      -2.09975916       0.40452984
H        4.94203787      -1.51953946      -1.24958955
H        2.91737880      -1.77232933       0.92604966
H        2.73585901      -2.02431918      -0.81131968
