13
Properties=species:S:1:pos:R:3 atomization_energy=-1309.73 smiles=C.N.C.C.C.C.H.H.H.H.H.H.H pbc="F F F"
C        1.13890949      -0.03058999      -0.08504997
N        2.59380888      -0.00898000       0.01946999
C        3.26291870      -0.68222972      -1.08449956
C        3.23837873       0.82818967      -0.99262959
C        4.44586832       1.51171946      -0.63507973
C        5.45618804       2.08980923      -0.33858988
H        0.71496970       0.72733974       0.58157977
H        0.75935969      -1.00531958       0.23873991
H        0.75378973       0.15978994      -1.09416952
H        2.65860906      -1.16298959      -1.84358931
H        4.17576840      -1.20640949      -0.82795966
H        2.59766904       1.35370950      -1.69389935
H        6.35000742       2.60048909      -0.06664998
