14
Properties=species:S:1:pos:R:3 atomization_energy=-1457.69 smiles=C.C.C.C.C.N.O.H.H.H.H.H.H.H pbc="F F F"
C        0.99369960      -0.06504997      -0.04775998
C        2.51807896      -0.00645000      -0.02621999
C        3.08720883      -0.77867969      -1.15186960
C        3.54914864      -1.41381947      -2.06086924
C        2.98901892       1.44592938      -0.04211999
N        2.75538894       2.15736916      -1.18575959
O        3.50154862       1.99449918       0.92995966
H        0.56976978       0.52471979       0.77242969
H        0.64049975      -1.09689962       0.05803998
H        0.58347976       0.32953986      -0.98466962
H        2.87316884      -0.44840983       0.91324965
H        3.96349852      -1.98386922      -2.86083893
H        2.54754899       1.69420934      -2.06038918
H        3.12726869       3.09759883      -1.22065952
