15
Properties=species:S:1:pos:R:3 atomization_energy=-1480.64 smiles=C.C.N.C.N.C.O.H.H.H.H.H.H.H.H pbc="F F F"
C        0.90808967      -0.04496999       0.14101994
C        2.40454908       0.01286000      -0.06106997
N        2.77772884       0.10459996      -1.49321942
C        3.20578863       1.07143952       0.75668971
N        4.12971845      -0.00942000       1.13728952
C        3.26440872      -1.00169957       0.76925972
O        3.25545878      -2.16605920       1.08466963
H        0.65012972      -0.08912997       1.20475950
H        0.47891981      -0.93134962      -0.33905988
H        0.41657982       0.83883969      -0.28038989
H        3.78402841       0.02212999      -1.64691931
H        2.48885901       0.96927961      -1.94579924
H        2.69340881       1.49297945       1.62807937
H        3.69644852       1.87140921       0.19505991
H        4.63555834      -0.14010994       2.00293915
