15
Properties=species:S:1:pos:R:3 atomization_energy=-1508.36 smiles=C.C.N.C.C.N.O.H.H.H.H.H.H.H.H pbc="F F F"
C        0.95735961      -0.03142999       0.10358996
C        2.46124892      -0.13098995       0.02815999
N        2.96396873      -1.40641948      -0.14764995
C        3.21157862       0.98110960       0.14538994
C        4.69038790       0.97765960       0.03960998
N        5.27467809       2.14142914       0.43307983
O        5.34904768       0.03184999      -0.37226985
H        0.61468973       0.99576960       0.26733989
H        0.57839976      -0.64406973       0.92859965
H        0.50662982      -0.38820984      -0.82860967
H        2.41308898      -1.98860926      -0.77255971
H        3.95879834      -1.40050951      -0.40724984
H        2.74209891       1.94467927       0.30048987
H        4.77011802       2.91785873       0.83332965
H        6.28502758       2.18059903       0.41004984
