16
Properties=species:S:1:pos:R:3 atomization_energy=-1577.09 smiles=C.N.C.C.C.C.O.H.H.H.H.H.H.H.H.H pbc="F F F"
C        1.06584963      -0.34309986      -0.16091994
N        2.52530901      -0.40806983      -0.20220992
C        3.06303878      -0.49722981      -1.55684941
C        3.13321866       0.79504967      -0.77323968
C        4.42983822       1.27086953      -0.19589993
C        5.07834822       2.37010914      -0.99974963
O        4.60043837       2.87204875      -2.01260924
H        0.74799967       0.21524992       0.72537969
H        0.65753974      -1.35523951      -0.07984997
H        0.60958974       0.13274995      -1.03722958
H        2.37386913      -0.55732979      -2.39123911
H        3.95953843      -1.09564957      -1.66631929
H        2.47384908       1.60993940      -1.04960959
H        5.15759790       0.45356982      -0.11764995
H        4.25981843       1.66591934       0.81186970
H        6.04483750       2.72696888      -0.60378978
