18
Properties=species:S:1:pos:R:3 atomization_energy=-1716.12 smiles=C.C.O.C.C.C.N.H.H.H.H.H.H.H.H.H.H.H pbc="F F F"
C        2.30104910      -0.49237981      -1.38542943
C        2.48987893       0.04543998       0.02577999
O        3.22400871      -0.91915963       0.78648972
C        3.25613881       1.36913944      -0.00485000
C        2.52309910       2.62177904      -0.54603979
C        3.22926881       3.35513871       0.60856975
N        3.28401863       2.05884920       1.31841946
H        1.71504937       0.19676992      -2.00138921
H        1.79157930      -1.46160937      -1.36110950
H        3.26692875      -0.65392976      -1.87757922
H        1.51139938       0.16561994       0.50405979
H        4.11012846      -0.99525958       0.39626984
H        4.26138843       1.25441955      -0.43751982
H        1.43074939       2.59300898      -0.45461983
H        2.79382883       2.94127886      -1.55520938
H        4.21466829       3.75976853       0.34964987
H        2.64235892       4.12974848       1.10839961
H        4.11864843       1.88733927       1.87520932
