13
Properties=species:S:1:pos:R:3 atomization_energy=-1357.97 smiles=C.C.C.N.O.C.N.H.H.H.H.H.H pbc="F F F"
C        0.92231963      -0.14434994       0.00044000
C        2.39075917       0.00312000       0.00486000
C        3.16595865       1.14293960       0.05530998
N        2.91935884       2.45703903       0.10703996
O        4.47311808       0.76585968       0.04202998
C        4.41829810      -0.59212974      -0.01359999
N        3.20951884      -1.10594960      -0.04269999
H        0.41907983       0.82699967       0.01086999
H        0.59499976      -0.70668971       0.88043964
H        0.59778978      -0.68535970      -0.89389963
H        3.68718847       3.09630866      -0.07054997
H        2.00548921       2.82124891      -0.13629995
H        5.36513784      -1.11306951      -0.02982999
