18
Properties=species:S:1:pos:R:3 atomization_energy=-1694.05 smiles=C.C.C.C.O.N.C.H.H.H.H.H.H.H.H.H.H.H pbc="F F F"
C        1.31551954      -1.27797947      -1.49441938
C        2.48624914      -0.98301962      -0.57059976
C        2.94209893       0.46846982      -0.68996973
C        4.11663836       0.76615970       0.23415991
O        4.48320830       2.13721925       0.07046997
N        5.55869761       2.41372914       0.92797961
C        5.89066764       3.65155854       0.78331968
H        1.00559961      -2.32262898      -1.39151945
H        1.58822933      -1.10601963      -2.54051904
H        0.45644983      -0.64353977      -1.25406957
H        3.31641873      -1.65542930      -0.81629969
H        2.19094916      -1.19653956       0.46329981
H        2.11328916       1.14775951      -0.45414984
H        3.22842880       0.69328972      -1.72506933
H        4.97303828       0.13049995      -0.01924999
H        3.83518857       0.58927978       1.27875955
H        6.72045746       4.06946831       1.37278940
H        5.37748794       4.33304849       0.08486997
