20
Properties=species:S:1:pos:R:3 atomization_energy=-1853.29 smiles=C.C.N.C.C.C.O.H.H.H.H.H.H.H.H.H.H.H.H.H pbc="F F F"
C        0.97001964      -0.27821988       0.20801992
C        2.46109904      -0.13304995       0.50038979
N        2.99227879       1.22031951       0.24019991
C        2.32786914       2.22503911       1.08070954
C        4.45617807       1.27506945       0.49427981
C        5.27023807       0.50543979      -0.55663979
O        4.86812802       0.90008963      -1.86722922
H        0.68185974      -1.33313946       0.26171991
H        0.72441970       0.08602997      -0.79460967
H        0.35777986       0.26221990       0.93733965
H        2.97116876      -0.85326969      -0.14893994
H        2.65717884      -0.43808983       1.53589936
H        1.26587955       2.31347919       0.82876965
H        2.75444901       3.21927877       0.90668967
H        2.41884894       1.99403918       2.14796907
H        4.70516796       0.92392963       1.50263945
H        4.77519795       2.32337916       0.42329985
H        5.13779797      -0.57664978      -0.46498982
H        6.33742770       0.72304973      -0.44623981
H        3.91004845       1.08829954      -1.78634936
