21
Properties=species:S:1:pos:R:3 atomization_energy=-2045.81 smiles=C.C.C.C.C.C.C.H.H.H.H.H.H.H.H.H.H.H.H.H.H pbc="F F F"
C        2.11220919      -1.33864949      -0.09948996
C        1.80311929       0.14745994      -0.00720000
C        3.03157888       1.00931960       0.23206991
C        3.91881847       0.63403975       1.40760948
C        3.21195863       0.77280970       2.74596891
C        3.71103857       1.61108940      -0.98450964
C        2.89509896       2.48808914      -0.07932997
H        1.21925946      -1.89206921      -0.40987983
H        2.42560915      -1.73984938       0.86899964
H        2.90866883      -1.53527938      -0.82410966
H        1.07313960       0.32076987       0.79189970
H        1.31119951       0.45151981      -0.94025963
H        4.81273828       1.27093955       1.42402943
H        4.28563848      -0.39095984       1.28540949
H        2.86061890       1.79830935       2.90044888
H        3.89678844       0.51994978       3.56257872
H        2.34764914       0.10607996       2.81546901
H        3.31274882       1.39203950      -1.96873918
H        4.78743804       1.73836933      -0.97411964
H        3.42067872       3.20330872       0.54456977
H        1.94356927       2.85569894      -0.44887983
