17
Properties=species:S:1:pos:R:3 atomization_energy=-1574.47 smiles=C.C.O.N.C.C.N.H.H.H.H.H.H.H.H.H.H pbc="F F F"
C        6.46552770       1.45847946       3.06056871
C        6.87359730       2.23431910       1.82367924
O        5.76402763       3.04073875       1.41721939
N        6.14436754       3.68382843       0.23302990
C        6.08260745       5.05654781       0.31309988
C        5.93864742       5.83714767      -0.96803959
N        6.12310762       5.71304763       1.42771940
H        7.29055704       0.83892964       3.42340869
H        5.60799759       0.81255970       2.84369883
H        6.15608782       2.14025909       3.85988852
H        7.14539743       1.53821942       1.02166958
H        7.73122684       2.87682891       2.05339922
H        5.72600787       3.27143866      -0.59823975
H        4.88001787       6.05160754      -1.13525952
H        6.32653759       5.26342815      -1.81411929
H        6.48689763       6.78161751      -0.89583967
H        6.18893732       5.00480779       2.16896908
