14
Properties=species:S:1:pos:R:3 atomization_energy=-1430.49 smiles=C.C.N.C.O.C.O.H.H.H.H.H.H.H pbc="F F F"
C        0.95548965      -0.39214983       0.01854999
C        2.34767917       0.21874991       0.09057997
N        2.30220907       1.67426937       0.07586997
C        2.27971904       2.33604896      -1.13461961
O        2.29240903       1.81450927      -2.24236922
C        2.15485922       2.35626903       1.26665951
O        2.05211915       1.85361923       2.37772904
H        1.01906962      -1.48443943       0.03095999
H        0.43905982      -0.08966996      -0.89809962
H        0.34135987      -0.07515997       0.86757965
H        2.94425889      -0.13170994      -0.75932972
H        2.84659887      -0.11755996       1.00669958
H        2.23388912       3.43283856      -1.02772956
H        2.12168927       3.45131855       1.13720954
