11
Properties=species:S:1:pos:R:3 atomization_energy=-1202.77 smiles=C.C.C.N.N.C.O.H.H.H.H pbc="F F F"
C        2.89580876      -1.09807952       0.41960985
C        2.29987905       0.05879998       0.10116996
C        3.01497876       1.28298950       0.01807999
N        2.49709913       2.46560895      -0.29021990
N        3.51335873       3.39577867      -0.26411989
C        4.59321817       2.73249897       0.05772998
O        4.37675832       1.40739941       0.25284991
H        2.31836912      -2.01569917       0.47406981
H        3.95836837      -1.16712959       0.63237973
H        1.23537952       0.09133997      -0.10546996
H        5.60101760       3.09681887       0.18298994
