18
Properties=species:S:1:pos:R:3 atomization_energy=-1637.73 smiles=C.C.C.N.C.N.H.H.H.H.H.H.H.H.H.H.H.H pbc="F F F"
C        1.19462953      -0.27781990       0.93263960
C        2.64741892      -0.33584988       0.47893980
C        3.30128869       1.05111960       0.31296986
N        3.33453863       1.78564926       1.59186933
C        4.73984836       0.91851965      -0.25364989
N        5.69035801       0.38184986       0.72975972
H        0.75861973      -1.28253947       0.92039965
H        0.59958978       0.35768987       0.27075989
H        1.10744959       0.10497996       1.95470919
H        2.68244906      -0.86012969      -0.48370981
H        3.21527881      -0.94839964       1.18992948
H        2.71217898       1.63758936      -0.40264984
H        3.74432863       1.16583954       2.29179914
H        2.38093895       1.95712917       1.90513922
H        5.09431776       1.90854922      -0.56726975
H        4.73865837       0.27822991      -1.14243961
H        5.71330754       1.04294962       1.50807946
H        6.62520746       0.40409984       0.32524988
