16
Properties=species:S:1:pos:R:3 atomization_energy=-1504.0 smiles=C.C.N.C.N.C.H.H.H.H.H.H.H.H.H.H pbc="F F F"
C        1.55977935      -0.22317992      -0.10770996
C        3.06488887      -0.07015997       0.01641000
N        3.39871858       1.34959953      -0.12049996
C        4.65857802       1.58168940      -0.03898998
N        5.25351810       2.80731897      -0.13702994
C        4.48015812       4.02739838      -0.09921996
H        1.27155953      -1.27410946      -0.00538000
H        1.20845955       0.13656994      -1.08132952
H        1.04201959       0.35279985       0.66701976
H        3.55366865      -0.65928972      -0.76819967
H        3.38708864      -0.44896982       0.99287959
H        5.40119799       0.77783967       0.11951995
H        6.19888775       2.88364892       0.21888992
H        3.68878850       4.01716836      -0.85524967
H        5.13095778       4.88218792      -0.30555988
H        4.03078845       4.16836828       0.88828967
