17
Properties=species:S:1:pos:R:3 atomization_energy=-1615.68 smiles=C.N.C.C.C.C.H.H.H.H.H.H.H.H.H.H.H pbc="F F F"
C        2.87492886      -1.10849954      -0.47103982
N        2.36098913       0.10942996       0.14060994
C        3.35735871       1.18350955       0.16087994
C        3.46478875       2.10916922      -1.02108959
C        2.87162887       2.60509893       0.26852988
C        3.61132861       3.59136871       1.10507957
H        2.09130922      -1.87230928      -0.48258981
H        3.72850847      -1.50537939       0.08821997
H        3.18078866      -0.93132962      -1.50728941
H        2.04554920      -0.09848996       1.08782957
H        4.28390849       0.94301963       0.67964976
H        2.79280891       1.95357925      -1.85749933
H        4.45318845       2.44869897      -1.30699946
H        1.80216927       2.78147899       0.29196988
H        4.69392811       3.42726860       1.07769961
H        3.28314860       3.52205861       2.14724916
H        3.41276864       4.60857808       0.75233971
