13
Properties=species:S:1:pos:R:3 atomization_energy=-1378.13 smiles=C.C.C.C.C.N.N.H.H.H.H.H.H pbc="F F F"
C        2.12383913       0.24548991       0.86320965
C        2.48893900       0.04908998      -0.63325973
C        2.69464903       1.48892941      -0.58102975
C        2.64350905       2.72593886      -1.10493952
C        2.52044911       3.49573869       0.09547996
N        2.44853899       2.74130886       1.21557946
N        2.76138888       1.52582945       0.75804971
H        2.62336898      -0.42150984       1.57305942
H        1.06485961       0.31534988       1.13856960
H        1.74088936      -0.30040989      -1.34742948
H        3.40756860      -0.52954982      -0.78664969
H        2.55088909       3.05587888      -2.12613914
H        2.38385918       4.56689800       0.18429993
