10
Properties=species:S:1:pos:R:3 atomization_energy=-956.51 smiles=O.C.C.C.H.H.H.H.H.H pbc="F F F"
O        1.02474959       0.01132000      -0.14227994
C        2.44459909      -0.03450999       0.03576998
C        3.19945865      -0.74495972      -1.04821956
C        3.24919869       0.75295969      -0.95501962
H        0.62005978       0.68162974       0.43500982
H        2.82801896      -0.12392995       1.04716961
H        2.62897906      -1.18709959      -1.85656923
H        4.08157844      -1.30554943      -0.76500970
H        4.17141846       1.20934953      -0.61336979
H        2.72118897       1.32277949      -1.71019932
