14
Properties=species:S:1:pos:R:3 atomization_energy=-1381.73 smiles=C.C.C.O.C.N.O.H.H.H.H.H.H.H pbc="F F F"
C        1.01275957      -0.37417984      -0.02771999
C        2.45881897       0.08522997       0.02570999
C        2.57273896       1.57974936       0.21031992
O        1.63073932       2.35643909       0.31036987
C        3.95789853       2.15980921       0.27596990
N        5.00063827       1.40023938       0.18714993
O        6.14675762       2.19795917       0.27829989
H        0.96155960      -1.45966945      -0.16038993
H        0.48049981       0.09772996      -0.86053967
H        0.48372981      -0.11707995       0.89612967
H        2.96015879      -0.19059993      -0.90857963
H        2.96446886      -0.40975984       0.86191967
H        4.00159852       3.25524884       0.40268984
H        6.86989712       1.54616937       0.20340992
