20
Properties=species:S:1:pos:R:3 atomization_energy=-1859.72 smiles=C.C.N.C.C.C.O.H.H.H.H.H.H.H.H.H.H.H.H.H pbc="F F F"
C        3.61173865       1.63053935      -3.62372868
C        4.70252807       1.93906919      -2.60702901
N        4.15833837       1.81177930      -1.25411953
C        5.14428793       1.98816920      -0.16341994
C        6.20302749       0.88863965      -0.11795995
C        5.78271780       3.39185871      -0.16353994
O        4.76000812       4.38487834      -0.23205991
H        3.99471845       1.76775936      -4.64024817
H        2.74938901       2.29385918      -3.49627868
H        3.26604861       0.59517979      -3.53144861
H        5.06089800       2.95770890      -2.78588898
H        5.53414780       1.24726949      -2.77139886
H        3.72698843       0.89101964      -1.15435948
H        4.55386812       1.91318921       0.75950970
H        6.88533727       0.93799962      -0.97203962
H        5.73783766      -0.10304996      -0.10636996
H        6.80632731       0.97987961       0.79184967
H        6.45804759       3.53325858      -1.01340958
H        6.35514741       3.55759871       0.75455972
H        4.04337852       3.96883835      -0.75400970
