20
Properties=species:S:1:pos:R:3 atomization_energy=-1851.51 smiles=C.C.O.C.C.N.C.H.H.H.H.H.H.H.H.H.H.H.H.H pbc="F F F"
C        1.95905926       3.08898878      -1.81603929
C        2.81167900       1.94086920      -1.31418950
O        3.93286853       2.47928909      -0.61623973
C        4.75913808       1.44006937      -0.07643997
C        5.95237777       2.06759916       0.65634975
N        5.49819766       2.82841891       1.82937928
C        6.60432755       3.53506855       2.45680915
H        1.09333960       2.71756903      -2.37144902
H        2.54200905       3.74742852      -2.46805909
H        1.60567942       3.69991858      -0.97911959
H        3.16106872       1.33875951      -2.16054904
H        2.22295914       1.30757944      -0.64141975
H        5.12811804       0.81323967      -0.89588964
H        4.17284842       0.81816966       0.60933974
H        6.48026738       2.73563898      -0.03534999
H        6.63804759       1.27395945       0.97287963
H        4.79681820       3.49971871       1.50522938
H        7.07359708       4.24532856       1.76866927
H        7.36328699       2.83434894       2.81989895
H        6.23591736       4.09705846       3.32042877
