15
Properties=species:S:1:pos:R:3 atomization_energy=-1500.31 smiles=C.C.N.C.C.N.C.H.H.H.H.H.H.H.H pbc="F F F"
C       -1.31090945       0.65915977       0.03481998
C       -1.02525962      -0.78520970      -0.15040995
N       -0.32988987      -1.57742942       0.85414970
C        0.45251984      -1.08151952      -0.27641990
C        1.13891958       0.29501987      -0.28687989
N        1.06996956       1.23277950       0.83166969
C        0.01286000       1.29744947      -0.16750993
H       -2.02155918       1.00693961      -0.72221968
H       -1.72734926       0.87455964       1.02422960
H       -1.72852929      -1.30801950      -0.78394969
H       -0.13000995      -1.04469960       1.69781931
H        0.76316970      -1.81992922      -1.00625958
H        1.91129925       0.48169980      -1.02347961
H        0.77018969       0.76402971       1.68368939
H        0.00295000       2.16514904      -0.81253971
