16
Properties=species:S:1:pos:R:3 atomization_energy=-1601.97 smiles=C.C.O.C.C.C.N.H.H.H.H.H.H.H.H.H pbc="F F F"
C        0.99723962      -0.13192995       0.06581997
C        2.51606890      -0.03102999      -0.04602998
O        2.89651882      -0.65225977      -1.27960953
C        3.05783874       1.41368940      -0.00099000
C        2.48712902       2.23569909       1.15613955
C        4.53234830       1.39133941       0.11323995
N        5.68745771       1.41146939       0.22204991
H        0.64064976       0.17776993       1.05218961
H        0.67008975      -1.16364956      -0.10477996
H        0.50690981       0.48353980      -0.69633971
H        2.96412871      -0.62849976       0.75743971
H        2.37792914      -0.26292990      -2.00503918
H        2.80500887       1.91758924      -0.94288962
H        2.65329900       1.73892938       2.11895904
H        1.41184940       2.40051909       1.03563958
H        2.96128873       3.22286868       1.20811954
