16
Properties=species:S:1:pos:R:3 atomization_energy=-1603.22 smiles=C.C.C.C.O.C.N.H.H.H.H.H.H.H.H.H pbc="F F F"
C        1.32144945      -0.13337995       0.94227960
C        2.51999896       0.00000000       0.00000000
C        2.12311923      -0.44509981      -1.42126943
C        3.28421874      -0.43110984      -2.41199916
O        4.32952847      -1.25923945      -1.92758926
C        3.00201878       1.36116943       0.00000000
N        3.38622869       2.44615901       0.00000000
H        1.59060931       0.16003993       1.96314929
H        0.96497964      -1.16832955       0.97447959
H        0.48742980       0.50263979       0.62411973
H        3.30887882      -0.66285977       0.37586987
H        1.31627944       0.18806993      -1.81071926
H        1.73243929      -1.46932945      -1.36338943
H        3.67359867       0.58058975      -2.56342895
H        2.95345889      -0.81996966      -3.38094866
H        5.05956822      -1.20233952      -2.56996887
