15
Properties=species:S:1:pos:R:3 atomization_energy=-1466.31 smiles=C.C.N.C.C.C.H.H.H.H.H.H.H.H.H pbc="F F F"
C        0.95136965      -0.01656000       0.07355997
C        2.47483898      -0.04113999      -0.06060998
N        2.83808900      -0.80234968      -1.26377953
C        3.03155869       1.39792942      -0.09440996
C        4.50050813       1.43920942       0.01251999
C        5.69757771       1.47869939       0.10007996
H        0.65236972       0.50494980       0.98925958
H        0.54392980      -1.03239959       0.12533995
H        0.48148980       0.49461979      -0.77424970
H        2.88991885      -0.56767979       0.80756966
H        2.47075903      -0.34114987      -2.09468919
H        2.40971909      -1.72614930      -1.23168955
H        2.60818898       1.97050916       0.74044974
H        2.71379895       1.90591930      -1.01356962
H        6.76026726       1.50523947       0.17223993
