17
Properties=species:S:1:pos:R:3 atomization_energy=-1642.43 smiles=C.C.C.N.C.N.O.H.H.H.H.H.H.H.H.H.H pbc="F F F"
C        0.96843960      -0.44497983       0.12836995
C        2.42471892      -0.42881985      -0.33268987
C        2.90995874      -1.84245925      -0.63559973
N        2.58853894       0.41316985      -1.50926945
C        2.63805895       1.77245928      -1.40190944
N        2.69497882       2.37489915      -2.61665898
O        2.63866908       2.41423910      -0.36435987
H        0.62525976       0.56206977       0.38906985
H        0.84549965      -1.08022961       1.01204957
H        0.30776988      -0.82319969      -0.65962974
H        3.04076878      -0.00924000       0.47192982
H        2.32786914      -2.29892902      -1.44416937
H        2.82735886      -2.48315910       0.24870991
H        3.95932849      -1.83299922      -0.95017965
H        2.19433922       0.07687997      -2.37539901
H        3.24585883       1.90902928      -3.32203865
H        2.84724888       3.37438855      -2.55243891
