20
Properties=species:S:1:pos:R:3 atomization_energy=-1857.06 smiles=C.C.O.C.C.C.N.H.H.H.H.H.H.H.H.H.H.H.H.H pbc="F F F"
C        3.84792853       3.46248875      -3.18887865
C        3.90045834       2.24849910      -2.28325899
O        4.92411831       2.45503905      -1.31214953
C        5.01968827       1.35904946      -0.40384984
C        6.15998735       1.61110934       0.57688975
C        5.91423790       2.85669894       1.42648941
N        6.99231714       3.02652872       2.39899905
H        3.08002875       3.34289862      -3.95794849
H        4.81527825       3.62259848      -3.67634857
H        3.63012855       4.36582834      -2.60949909
H        4.12685828       1.35330943      -2.87293898
H        2.93518884       2.11501915      -1.78246926
H        5.22092800       0.43889982      -0.96415963
H        4.07226843       1.24307953       0.13501995
H        7.09557715       1.73644934       0.01730999
H        6.27444733       0.73221970       1.22273949
H        4.96454784       2.76469896       1.96427923
H        5.85608766       3.75038862       0.79591972
H        7.87397668       3.15219877       1.90211919
H        6.83790707       3.89073854       2.91715876
