20
Properties=species:S:1:pos:R:3 atomization_energy=-1928.85 smiles=C.C.C.C.N.C.C.H.H.H.H.H.H.H.H.H.H.H.H.H pbc="F F F"
C       -1.52451934       0.75362969       0.13283995
C       -1.53347937      -0.75135972      -0.09853996
C       -0.30230988      -1.49181936       0.41761984
C        0.95588960      -1.18829955      -0.39291985
N        1.71486934      -0.00895000      -0.00365000
C        0.97272962       1.18667959       0.37350984
C       -0.30155989       1.48407947      -0.41570985
H       -2.42126905       1.17582959      -0.33756986
H       -1.62101939       0.95566963       1.20692954
H       -1.65825933      -0.95235960      -1.17018948
H       -2.42139900      -1.16748954       0.39391985
H       -0.14485994      -1.29439954       1.48452938
H       -0.50493979      -2.56721897       0.33286988
H        1.63403931      -2.04639917      -0.30794989
H        0.71077974      -1.12054962      -1.45981947
H        2.36195909      -0.24599990       0.74812969
H        0.74356969       1.14923956       1.44559946
H        1.65818930       2.03280925       0.24436991
H       -0.49888980       2.56079890      -0.33771987
H       -0.16534993       1.27595956      -1.48375939
