12
Properties=species:S:1:pos:R:3 atomization_energy=-1237.81 smiles=C.C.C.O.O.N.C.H.H.H.H.H pbc="F F F"
C        1.00590960      -1.82457931       1.42611949
C        1.95661921      -1.87293923       0.48460981
C        3.15513868      -1.00138959       0.56583978
O        3.36367861      -0.19978993       1.46354942
O        3.93098841      -1.28073946      -0.52811979
N        5.09365817      -0.48544982      -0.51916980
C        5.80535747      -0.77325967      -1.55350943
H        0.12945995      -2.46104907       1.36798943
H        1.08169956      -1.14875949       2.27528911
H        1.87978926      -2.54621895      -0.36016985
H        6.76080725      -0.25196990      -1.72378937
H        5.50864771      -1.53052937      -2.29938902
