14
Properties=species:S:1:pos:R:3 atomization_energy=-1453.94 smiles=C.C.O.C.C.C.N.H.H.H.H.H.H.H pbc="F F F"
C        1.00067959      -0.02083999       0.19300993
C        2.51999896       0.00000000       0.00000000
O        3.09284869      -0.74292971       1.08963954
C        2.88226892      -0.78032968      -1.24532957
C        3.42822873      -0.33548986      -2.38806907
C        3.00201878       1.36116943       0.00000000
N        3.38622869       2.44615901       0.00000000
H        0.47714983       0.49652982      -0.61955979
H        0.71884974       0.46255981       1.13685955
H        0.62018973      -1.04810960       0.24969990
H        3.07102885      -0.17055994       1.87630923
H        2.67499898      -1.84875933      -1.17886955
H        3.68342848       0.70732974      -2.55515904
H        3.64397851      -1.02572959      -3.19971880
