14
Properties=species:S:1:pos:R:3 atomization_energy=-1443.74 smiles=C.C.O.N.C.C.O.H.H.H.H.H.H.H pbc="F F F"
C        3.17903874      -1.55742940       0.26748990
C        2.55920896      -0.24938990      -0.14141995
O        1.41379942      -0.18223993      -0.58695978
N        3.29530869       0.90419966      -0.01594999
C        4.59181823       1.07006961       0.43604983
C        5.05755814       2.50408896       0.40736983
O        5.31900815       0.17439993       0.84964968
H        4.06197836      -1.76419934      -0.34285986
H        2.45692901      -2.36275899       0.10724995
H        3.43728868      -1.53787940       1.32936950
H        2.78055899       1.71741927      -0.32179988
H        4.37151841       3.14643881      -0.15120995
H        6.03784742       2.55045887      -0.07469997
H        5.13254797       2.87439896       1.43318943
