14
Properties=species:S:1:pos:R:3 atomization_energy=-1443.43 smiles=C.C.C.O.N.C.C.H.H.H.H.H.H.H pbc="F F F"
C        2.67699896       0.01568999       1.28385954
C        3.44829865       0.14839994       0.19780992
C        3.90735834       1.48819941      -0.25246990
O        3.62134869       2.52603901       0.33256988
N        4.69611835       1.38230949      -1.39312945
C        5.88471767       2.17553903      -1.52671942
C        4.69436818       2.43139914      -2.37371899
H        2.34908919      -0.96250963       1.61773934
H        2.35919910       0.87911964       1.86276927
H        3.76670840      -0.71276969      -0.37701986
H        6.72060735       1.62821941      -1.93843925
H        6.09610767       2.83872891      -0.69801973
H        4.06425842       3.28256874      -2.14937909
H        4.68089823       2.07081916      -3.39212870
