16
Properties=species:S:1:pos:R:3 atomization_energy=-1584.6 smiles=C.C.N.C.C.C.O.H.H.H.H.H.H.H.H.H pbc="F F F"
C        1.01225958      -0.28769990      -0.00951999
C        2.46973911      -0.32361988      -0.31210989
N        2.94544888      -0.19154992      -1.68875936
C        3.17923884       0.92606966      -0.77169970
C        4.57534807       1.21389957      -0.31744988
C        4.63706829       1.80716934       1.06668964
O        3.66177846       2.06595914       1.76425927
H        0.84992964       0.09669996       1.00285960
H        0.59070974      -1.29654953      -0.06167998
H        0.45709981       0.34953986      -0.70599971
H        3.00648882      -1.02275959       0.31776987
H        2.17152923       0.01349999      -2.32440917
H        2.59780908       1.82681926      -0.93774962
H        5.04122777       1.92943922      -1.00355957
H        5.18952790       0.30675986      -0.31286988
H        5.65785774       2.01484919       1.43677947
