15
Properties=species:S:1:pos:R:3 atomization_energy=-1495.08 smiles=C.C.C.O.N.C.N.H.H.H.H.H.H.H.H pbc="F F F"
C        1.13269949       0.01788999       0.40148984
C        2.59730896      -0.22223992       0.07705997
C        3.40836874       1.05961957       0.10104996
O        2.92745893       2.15893917       0.36934985
N        4.75372810       0.96694959      -0.19297992
C        5.48395760      -0.13362995      -0.53087980
N        6.73784712      -0.04767998      -0.77771969
H        0.58245977      -0.92842964       0.40169985
H        0.67090976       0.68149973      -0.33753986
H        1.01645963       0.48129983       1.38707943
H        2.67322888      -0.67006975      -0.91910967
H        3.01837892      -0.91542966       0.81271968
H        5.22442783       1.85934930      -0.14895994
H        4.94954825      -1.09235955      -0.58148975
H        7.07519736       0.91267963      -0.68452972
