18
Properties=species:S:1:pos:R:3 atomization_energy=-1706.44 smiles=C.C.C.C.C.N.O.H.H.H.H.H.H.H.H.H.H.H pbc="F F F"
C        0.97445960      -0.05888998      -0.04208999
C        2.50513891      -0.03104999       0.05070998
C        2.96112875      -0.77097967       1.31371954
C        3.11486888      -0.69851973      -1.18815951
C        2.93912874       1.42726949       0.05099998
N        3.57883869       1.96393921       1.04040959
O        3.82848843       3.30797875       0.74247968
H        0.61959978       0.45963980      -0.94013965
H        0.51867980       0.43950983       0.82059967
H        0.59675977      -1.08727961      -0.07697997
H        2.54266890      -0.31299989       2.21740911
H        4.05253840      -0.75424973       1.41250950
H        2.64405888      -1.81937927       1.29457946
H        2.80083885      -0.19380993      -2.10881911
H        2.81444884      -1.74928934      -1.26222946
H        4.20966835      -0.66103976      -1.15608959
H        2.67549885       2.02312919      -0.84311966
H        4.30283839       3.61327863       1.53861936
