20
Properties=species:S:1:pos:R:3 atomization_energy=-1869.5 smiles=C.C.C.N.C.C.O.H.H.H.H.H.H.H.H.H.H.H.H.H pbc="F F F"
C        1.01607962      -0.22735991      -0.07683997
C        2.54990904      -0.23332991       0.03401998
C        2.96295890      -1.08075963       1.24561950
N        3.10755885      -0.85827966      -1.17795952
C        3.05612869       1.22648951       0.15723994
C        4.57399810       1.39341950       0.25868990
O        5.22472811       0.92698965      -0.91407963
H        0.67886974       0.34856986      -0.94649966
H        0.56101976       0.22097992       0.81384968
H        0.61614978      -1.24334953      -0.17580992
H        2.61923907      -0.62202973       2.17960914
H        4.04961842      -1.20117955       1.31233954
H        2.53077905      -2.08735922       1.19406949
H        2.73403895      -0.38268984      -2.00406922
H        2.76881902      -1.82021928      -1.25009951
H        2.59908890       1.69432932       1.03857962
H        2.70909902       1.79384928      -0.71735972
H        4.98521780       0.86471966       1.12332955
H        4.82197815       2.45368908       0.37543986
H        4.78363793       0.07898997      -1.14412960
