16
Properties=species:S:1:pos:R:3 atomization_energy=-1569.33 smiles=C.N.C.C.O.C.C.H.H.H.H.H.H.H.H.H pbc="F F F"
C        0.79611969       0.01783999       0.01883999
N        2.24078912       0.04116999       0.18703993
C        3.01308880      -0.81910965      -0.69648972
C        2.55878908      -1.40690939      -1.98717918
O        2.53061907      -0.34758987      -2.96163871
C        2.56142897       0.91708963      -2.27513923
C        3.01290889       0.66100973      -0.87906968
H        0.37175986       0.94523964       0.41790983
H        0.37750986      -0.80823966       0.60347979
H        0.43129982      -0.09152996      -1.00636960
H        3.89492851      -1.29059943      -0.28426989
H        3.25332860      -2.17310908      -2.34411902
H        1.56330935      -1.85672921      -1.92172924
H        3.25956875       1.57062935      -2.80695889
H        1.56812938       1.37338945      -2.32321918
H        3.89481849       1.21873953      -0.59388975
