20
Properties=species:S:1:pos:R:3 atomization_energy=-1867.38 smiles=C.C.C.C.N.C.O.H.H.H.H.H.H.H.H.H.H.H.H.H pbc="F F F"
C        1.37277944      -0.58040977       0.09907996
C        2.88370898      -0.42005985       0.17279993
C        3.31929858       0.97495959      -0.28399990
C        4.82842824       1.22183955      -0.13848994
N        5.64066792       0.31351988      -0.97124963
C        5.18333771       2.67409891      -0.51695978
O        6.59911742       2.84282879      -0.46451983
H        1.08233960      -1.58583937       0.41891985
H        1.01227957      -0.43196982      -0.92409964
H        0.86881966       0.14171994       0.74948969
H        3.34696873      -1.18945952      -0.45403982
H        3.21372874      -0.59465974       1.20347955
H        2.78196901       1.72559934       0.30998987
H        3.01478875       1.12675962      -1.32752950
H        5.13251819       1.05791961       0.90263962
H        5.28682784       0.32575987      -1.92883918
H        5.51504784      -0.64463974      -0.64436975
H        4.72569813       3.38600866       0.17658993
H        4.85200810       2.91476894      -1.53290936
H        6.95372712       1.97560928      -0.75408969
