16
Properties=species:S:1:pos:R:3 atomization_energy=-1566.16 smiles=C.C.C.C.C.N.O.H.H.H.H.H.H.H.H.H pbc="F F F"
C        0.97187964       0.03281999      -0.24334990
C        2.44814914      -0.03467999      -0.02361999
C        3.14229881      -1.17815949       0.08978996
C        3.21158872       1.25104954       0.03441998
C        2.69651905       2.32511899       0.96912960
N        4.26990815       1.40368939      -0.71160972
O        4.84347829       2.66868893      -0.54049979
H        0.73757972       0.71400971      -1.06840953
H        0.45790982       0.38574986       0.65601976
H        0.55716981      -0.94807963      -0.49986980
H        2.65244889      -2.14438924       0.03726998
H        4.21961828      -1.17579956       0.22695991
H        1.89900921       1.94821923       1.61382934
H        2.31163920       3.16270887       0.38078985
H        3.50783873       2.67578903       1.61387930
H        5.60368777       2.63438904      -1.15033959
