18
Properties=species:S:1:pos:R:3 atomization_energy=-1721.17 smiles=C.C.O.C.N.C.C.H.H.H.H.H.H.H.H.H.H.H pbc="F F F"
C        0.93609963      -0.17507993       0.08298997
C        2.45614905      -0.04679998      -0.07289997
O        3.07664877      -0.75758971       1.00861957
C        2.95285884      -0.68110975      -1.40390942
N        2.64331904      -2.11638918      -1.51137945
C        2.85374893       1.41581946      -0.01701999
C        3.72730864       1.98531924       0.82478969
H        0.40202983       0.28453989      -0.75575968
H        0.59506978       0.30506988       1.00845959
H        0.63040978      -1.22463954       0.15779994
H        2.69851903      -0.39701983       1.82817932
H        4.04363842      -0.57735978      -1.46536936
H        2.51969893      -0.16237994      -2.26667906
H        2.94158872      -2.54701909      -0.63137974
H        3.22748861      -2.52715911      -2.23768923
H        2.37255903       2.05635919      -0.75593972
H        4.26580827       1.41206943       1.57377932
H        3.93950837       3.04896879       0.76837972
