14
Properties=species:S:1:pos:R:3 atomization_energy=-1390.28 smiles=C.C.C.O.N.C.O.H.H.H.H.H.H.H pbc="F F F"
C        0.99139960      -0.01243999       0.00107000
C        2.50465898       0.00836000       0.02729999
C        3.08907886       1.08057959       0.92361965
O        4.40062835       0.61667974       1.27418945
N        4.32680834      -0.79672970       1.19139956
C        3.12219885      -1.19769952       0.66021975
O        2.68280889      -2.33340907       0.66204972
H        0.62625975      -0.82687969      -0.63378975
H        0.59626974       0.93009964      -0.39110985
H        0.57473976      -0.16899993       1.00224960
H        2.90734888       0.08982997      -0.98954964
H        2.51712894       1.22086946       1.84810933
H        3.17135879       2.04288925       0.40981984
H        4.84521786      -1.36501950       1.84903929
