20
Properties=species:S:1:pos:R:3 atomization_energy=-1862.52 smiles=C.C.C.O.C.C.N.H.H.H.H.H.H.H.H.H.H.H.H.H pbc="F F F"
C        1.29507945      -0.46731982       0.83716969
C        2.33807897      -0.62933977      -0.27472988
C        2.12992915      -1.94833921      -1.03095959
O        0.91738965      -1.94187928      -1.77516932
C        2.29522908       0.60875975      -1.19593951
C        3.31083867       0.59963975      -2.34120914
N        4.68064792       0.51166978      -1.84607932
H        1.51039939       0.42147984       1.44016942
H        1.30354945      -1.33304950       1.50768935
H        0.28336989      -0.35902985       0.43283983
H        3.32036872      -0.67788975       0.21178992
H        2.10616913      -2.79783888      -0.33922985
H        2.95071882      -2.13157914      -1.73072937
H        0.18401994      -1.98575918      -1.13729949
H        2.45835897       1.50864935      -0.58773974
H        1.29160952       0.71367972      -1.62784937
H        3.20209879       1.52239938      -2.92227882
H        3.11582875      -0.23095990      -3.02656884
H        4.88596784       1.32634948      -1.26876950
H        5.32392810       0.55501976      -2.63593886
