16
Properties=species:S:1:pos:R:3 atomization_energy=-1570.47 smiles=C.C.C.C.C.N.O.H.H.H.H.H.H.H.H.H pbc="F F F"
C        1.01902962       0.02875999      -0.13976994
C        2.51994899      -0.05054998      -0.01495999
C        3.06258887      -1.45125938      -0.08275997
C        3.23814885       1.07694955       0.14115994
C        4.70933798       1.15628957       0.27031989
N        5.30841781       2.29392908       0.42276982
O        6.68774726       2.07271922       0.51570979
H        0.65038974       1.05894963      -0.09143997
H        0.54112981      -0.53309980       0.66956976
H        0.69562971      -0.39481985      -1.09637956
H        2.61185889      -2.06601919       0.70360975
H        4.14458833      -1.51271945       0.04213998
H        2.81885883      -1.90050919      -1.05129957
H        2.74705899       2.04616918       0.18002993
H        5.27737804       0.21418992       0.23050990
H        7.03610722       2.97706876       0.62637973
