16
Properties=species:S:1:pos:R:3 atomization_energy=-1572.63 smiles=C.C.C.C.O.N.C.H.H.H.H.H.H.H.H.H pbc="F F F"
C        2.43876898      -0.49737979      -1.60145931
C        2.45494896       0.04675998      -0.17963994
C        3.35347862       1.26718953      -0.03769999
C        3.50415873       1.72914927       1.39521951
O        3.61875850       3.15379880       1.31575951
N        2.91798894       3.57011863       0.15826994
C        2.76660885       2.52193913      -0.57688975
H        1.81004932      -1.39193945      -1.65517937
H        3.44682857      -0.77267969      -1.92760919
H        2.03756922       0.23744991      -2.30590900
H        2.80662884      -0.74583972       0.49166982
H        1.42650947       0.28918988       0.11529995
H        4.32752849       1.11336953      -0.51491981
H        4.39989811       1.31626947       1.86827930
H        2.63422906       1.48976942       2.01716925
H        2.29296921       2.55136903      -1.56785938
