16
Properties=species:S:1:pos:R:3 atomization_energy=-1605.4 smiles=C.C.C.N.C.C.O.H.H.H.H.H.H.H.H.H pbc="F F F"
C        2.31254910       0.01979999       1.50153941
C        2.89495891       0.27828990       0.11904995
C        3.12648874       1.76070935      -0.13532995
N        2.00959918       2.49096900      -0.49409980
C        4.37813807       2.24077902      -0.02377999
C        4.76502800       3.63501848      -0.31018987
O        5.90790792       4.03018840      -0.11054996
H        2.16012916      -1.05414959       1.65141938
H        1.34540945       0.51760979       1.63017940
H        2.98718876       0.37741984       2.28755922
H        2.21906920      -0.12207995      -0.64638973
H        3.83134860      -0.28350987       0.01787999
H        1.12607958       2.04830920      -0.24552990
H        2.02314925       3.47199861      -0.22927991
H        5.20636798       1.60398930       0.27090990
H        3.98211854       4.29618845      -0.71055971
