16
Properties=species:S:1:pos:R:3 atomization_energy=-1496.96 smiles=C.C.O.N.C.O.C.H.H.H.H.H.H.H.H.H pbc="F F F"
C        0.85065964      -0.12190995       0.01961999
C        2.36176909      -0.19986991      -0.05848998
O        2.90105877       1.07564954       0.28642988
N        4.29517811       1.02354957       0.13267996
C        4.79265827       2.14801903       0.51270980
O        6.11508753       2.43651895       0.48910979
C        6.97048746       1.40498939      -0.01440000
H        0.39737984      -1.08860953      -0.21838991
H        0.46790980       0.62886973      -0.68010976
H        0.53003979       0.18284992       1.02082963
H        2.67060892      -0.47003982      -1.07393962
H        2.73654888      -0.95277961       0.64436975
H        4.21591834       3.00257870       0.90013966
H        8.00224676       1.75484933       0.06316998
H        6.74872715       1.20955947      -1.06857960
H        6.86914719       0.49290981       0.58223974
