17
Properties=species:S:1:pos:R:3 atomization_energy=-1616.19 smiles=C.N.C.C.C.C.H.H.H.H.H.H.H.H.H.H.H pbc="F F F"
C        3.01729869      -0.89246966      -0.70753975
N        2.61467894       0.01290999       0.35933986
C        3.12806884       1.37268948       0.17554993
C        2.42365914       2.28841917       1.18033951
C        4.61812831       1.44206947       0.38851986
C        5.49333776       1.87296925      -0.53018980
H        2.53971890      -1.86476924      -0.55270979
H        4.09896835      -1.05568957      -0.72465973
H        2.69397883      -0.52311979      -1.68586928
H        2.91882895      -0.35257985       1.25953948
H        2.86428880       1.72797933      -0.82919968
H        2.62711887       1.99249920       2.21603921
H        1.33793943       2.26850922       1.03224958
H        2.75344902       3.32627857       1.05870953
H        4.99369815       1.12709951       1.35909942
H        5.17201813       2.20076913      -1.51379943
H        6.55661726       1.90246930      -0.31315987
