16
Properties=species:S:1:pos:R:3 atomization_energy=-1643.1 smiles=C.N.C.C.C.C.C.H.H.H.H.H.H.H.H.H pbc="F F F"
C        0.85953968      -1.29118951       0.78664969
N        1.76532928      -0.15272994       0.52826981
C        0.73957970       0.49488982      -0.31276989
C       -0.20435991       1.46797948       0.41311983
C       -1.53089941       0.75628970       0.39323984
C       -1.44653940      -0.50815979      -0.04246998
C       -0.04454998      -0.83343967      -0.37721983
H        1.32184953      -2.27360909       0.65668976
H        0.40606984      -1.25839944       1.78485934
H        2.59493907      -0.42464982       0.00046000
H        1.10488956       0.87097968      -1.27532948
H        0.10613996       1.67024935       1.44370938
H       -0.27320990       2.41775912      -0.12867995
H       -2.44931895       1.23071946       0.71053971
H       -2.27348898      -1.19551950      -0.13441995
H        0.08347996      -1.39617950      -1.30836949
