18
Properties=species:S:1:pos:R:3 atomization_energy=-1716.23 smiles=C.C.C.O.C.C.N.H.H.H.H.H.H.H.H.H.H.H pbc="F F F"
C        1.85331921      -0.01096000       0.52898980
C        2.76697902       0.09484996      -0.69198971
C        2.30937906      -0.87705967      -1.79095932
O        3.28478875      -0.96578962      -2.82629882
C        2.76985888       1.51829938      -1.20757955
C        3.89451847       2.45296892      -0.84414968
N        3.77776858       1.90820920      -2.19523904
H        2.17360920       0.68228971       1.31390954
H        1.87037932      -1.02392958       0.94320964
H        0.81727968       0.23532990       0.27238989
H        3.78568850      -0.18209993      -0.38903985
H        1.36260948      -0.55779976      -2.23943915
H        2.17448908      -1.88500924      -1.38674950
H        3.66375850      -0.06783998      -2.93246896
H        1.77632928       1.92430920      -1.36270940
H        4.72243801       2.07822912      -0.25468991
H        3.67640863       3.50659852      -0.72282969
H        3.41444866       2.62238892      -2.83262880
