15
Properties=species:S:1:pos:R:3 atomization_energy=-1465.05 smiles=C.C.C.N.N.C.O.H.H.H.H.H.H.H.H pbc="F F F"
C        0.75472973       0.21588991      -0.07541997
C        2.22028922       0.00655000      -0.26941989
C        3.16030870       0.87355964       0.13671995
N        4.52094797       0.71531975      -0.02629999
N        5.00528823      -0.44752983      -0.66927976
C        5.45937801       1.65261934       0.40811985
O        6.67654728       1.55161934       0.27870991
H        0.33583988      -0.60498974       0.51501980
H        0.24907990       0.23424991      -1.04611959
H        0.53423977       1.15502955       0.44179983
H        2.50536904      -0.91172967      -0.77717970
H        2.85908876       1.78961932       0.63893977
H        5.49116771      -0.99190963       0.04776998
H        5.76049751      -0.13890995      -1.29042949
H        4.99587779       2.52659893       0.89557965
