16
Properties=species:S:1:pos:R:3 atomization_energy=-1660.86 smiles=C.C.C.C.C.C.N.H.H.H.H.H.H.H.H.H pbc="F F F"
C        0.58302979       1.23102958       0.66563976
C       -0.82606970       0.76365967       0.42242984
C       -0.83940970       0.00181000      -0.85997968
C        0.56309979      -0.01181999      -1.40812941
C        1.24319952       0.00956000      -0.01772999
C        0.50381979      -1.14784959       0.67871973
N       -0.90289965      -0.70698973       0.42927984
H        0.80342966       2.17463922       0.15819994
H        0.81854966       1.30182944       1.73158931
H       -1.65997934       1.34881945       0.76450971
H       -1.68253940      -0.01470999      -1.52520934
H        0.77885973      -0.92236966      -1.97535922
H        0.78595969       0.87678967      -2.00531927
H        2.33244921      -0.02440999      -0.00840000
H        0.71403974      -1.20154947       1.75218925
H        0.69940970      -2.11956919       0.21302992
