15
Properties=species:S:1:pos:R:3 atomization_energy=-1487.75 smiles=C.C.N.C.N.C.O.H.H.H.H.H.H.H.H pbc="F F F"
C        1.96434925      -0.82453969       0.46952980
C        3.20087877      -0.25027990      -0.19893992
N        3.32404872       1.15819959       0.18536992
C        4.35806815       1.72366927      -0.31010988
N        4.57871821       3.03460887      -0.02526999
C        5.63190799       3.77688845      -0.48317982
O        5.79595763       4.95948809      -0.21634991
H        1.83818930      -1.87785930       0.20136991
H        1.06528958      -0.28056990       0.16170994
H        2.04089924      -0.75332973       1.55949939
H        3.10079889      -0.34412987      -1.28684954
H        4.08245832      -0.81775968       0.12244995
H        5.10498784       1.23958954      -0.96160963
H        3.90486834       3.49836874       0.56674975
H        6.32907756       3.21148879      -1.12303950
