16
Properties=species:S:1:pos:R:3 atomization_energy=-1561.75 smiles=C.C.N.C.C.C.O.H.H.H.H.H.H.H.H.H pbc="F F F"
C        0.97148960       0.03766998      -0.10631996
C        2.45492903      -0.02152999       0.00929000
N        3.23638884      -0.75661969      -0.97126963
C        3.34126856       0.71209975      -0.97608959
C        4.65997795       1.34922949      -0.57172976
C        5.97309770       1.03252960      -1.24444956
O        5.23910796       2.21755925      -1.56370941
H        0.58881978       0.90513966       0.43992983
H        0.52296981      -0.86136965       0.32722986
H        0.63771975       0.11790995      -1.14586955
H        2.78635882      -0.10478996       1.03808959
H        2.66271903      -1.06738960      -1.75723929
H        2.83998880       1.19946950      -1.81072923
H        4.71787838       1.69475929       0.45624983
H        5.99290772       0.23481991      -1.97604922
H        6.88151748       1.14174961      -0.66684975
