17
Properties=species:S:1:pos:R:3 atomization_energy=-1795.0 smiles=C.C.C.C.C.C.C.H.H.H.H.H.H.H.H.H.H pbc="F F F"
C        0.56515975       1.22338949       0.66961972
C       -0.85006969       0.75137971       0.42761982
C       -0.86056963      -0.01170999      -0.85487969
C        0.54902979      -0.01916999      -1.40435945
C        1.25880948       0.00041000      -0.01112000
C        0.56558979      -1.20353948       0.70358975
C       -0.84943968      -0.73930970       0.44872982
H        0.78024969       2.16764914       0.16035994
H        0.79835969       1.29715955       1.73591932
H       -1.67776933       1.34518941       0.76422969
H       -1.69797929      -0.02136999      -1.52549940
H        0.76571970      -0.92728961      -1.97423925
H        0.76532972       0.87255966      -1.99929928
H        2.34858907       0.00046000      -0.02091999
H        0.79890971      -1.24734948       1.77131925
H        0.78108970      -2.16130906       0.22097992
H       -1.67733935      -1.32329942       0.80138969
