15
Properties=species:S:1:pos:R:3 atomization_energy=-1464.47 smiles=C.C.N.N.C.C.O.H.H.H.H.H.H.H.H pbc="F F F"
C        1.08455961      -0.00132000       0.12279996
C        2.56626894       0.03492999      -0.07698997
N        3.18661877       1.14950955      -0.33263987
N        4.53325820       1.09083963      -0.48544982
C        5.24666781       0.02429999       0.20523992
C        4.54502845      -1.26959955      -0.16869994
O        3.13409879      -1.19087951       0.09404996
H        0.71291970      -1.02939962       0.09494996
H        0.59423979       0.56806976      -0.67157976
H        0.84048968       0.44239984       1.09149960
H        4.95563802       2.00223919      -0.30021988
H        6.29728735      -0.00105000      -0.09801996
H        5.19760805       0.19174993       1.28701949
H        4.94669792      -2.09849915       0.42276982
H        4.68076803      -1.51708945      -1.22801952
