15
Properties=species:S:1:pos:R:3 atomization_energy=-1506.22 smiles=C.N.C.C.N.C.O.H.H.H.H.H.H.H.H pbc="F F F"
C        1.10724962      -0.04032998       0.18419993
N        2.49260890       0.01727999      -0.20790992
C        3.26276881       1.24105949      -0.18134992
C        4.62439824       0.80096968      -0.70330973
N        4.61831806      -0.62114972      -0.49969979
C        3.32708881      -1.09027958      -0.30416988
O        3.01787880      -2.26558899      -0.23535992
H        0.72558970      -1.05966953       0.09122996
H        0.53069982       0.62896972      -0.45848981
H        1.02138962       0.28152990       1.22504958
H        3.32596871       1.58395938       0.85627969
H        2.79656890       2.01129926      -0.80242967
H        4.72142818       0.98577962      -1.77721926
H        5.46078804       1.26218946      -0.17251994
H        5.35571781      -1.26978955      -0.74126969
