15
Properties=species:S:1:pos:R:3 atomization_energy=-1472.37 smiles=C.C.C.O.N.N.C.H.H.H.H.H.H.H.H pbc="F F F"
C        0.63194976       0.52708978      -0.16571994
C        2.10043919       0.17262994      -0.00693000
C        2.99394872       1.39908939      -0.04038998
O        2.57118889       2.54778895      -0.16855993
N        4.34596835       1.17208954       0.08395997
N        4.87288800      -0.07404998       0.22755991
C        6.15890737      -0.10880995       0.32685988
H        0.01615000      -0.37699987      -0.13579995
H        0.45071983       1.03313961      -1.11991955
H        0.29917987       1.19455951       0.63618974
H        2.39742905      -0.50169980      -0.81746969
H        2.24585921      -0.34143986       0.94930961
H        4.94159780       1.99315917       0.06140997
H        6.66764756      -1.07916956       0.44592983
H        6.80119741       0.78737969       0.29989989
