17
Properties=species:S:1:pos:R:3 atomization_energy=-1614.61 smiles=C.C.C.O.C.N.N.H.H.H.H.H.H.H.H.H.H pbc="F F F"
C        3.36646863      -1.92665929      -0.07603997
C        3.14169876      -0.64418977       0.70818975
C        3.80299843       0.58954978       0.08950996
O        3.37035857       1.74661930       0.81352966
C        5.34081815       0.53210978       0.15125994
N        5.99332760       1.23566957       1.12414950
N        6.05060781      -0.13860995      -0.69643976
H        2.75768895      -2.73409900       0.34353986
H        4.41123838      -2.24655918      -0.02713999
H        3.08721868      -1.80251925      -1.12673955
H        3.49374856      -0.78489972       1.73788927
H        2.06201924      -0.46223982       0.78523967
H        3.49762865       0.71672971      -0.95419960
H        3.51194870       1.54655934       1.75664934
H        5.57954774       2.14705916       1.29886947
H        6.98323725       1.30612954       0.90517965
H        5.44912781      -0.60462979      -1.38433949
