15
Properties=species:S:1:pos:R:3 atomization_energy=-1472.6 smiles=C.N.C.C.C.O.N.H.H.H.H.H.H.H.H pbc="F F F"
C        1.03176958      -0.03152998       0.12248995
N        2.48914894       0.00150000       0.03425998
C        3.05366871       1.13774953       0.77996967
C        4.41424818       0.64882977       1.26322944
C        4.20355840      -0.83211966       1.34737952
O        4.92068812      -1.63684940       1.91790920
N        3.08006887      -1.12429951       0.60422978
H        0.63727975      -0.87380964      -0.45655982
H        0.60238978       0.88134968      -0.30429989
H        0.67825973      -0.13371995       1.15505958
H        2.43986914       1.39286942       1.65438932
H        3.14171869       2.02996926       0.15223995
H        5.20339804       0.85348966       0.53342979
H        4.67252840       1.06315953       2.24057918
H        2.78449889      -2.07906913       0.43305983
