15
Properties=species:S:1:pos:R:3 atomization_energy=-1447.75 smiles=C.C.O.C.N.N.C.H.H.H.H.H.H.H.H pbc="F F F"
C        1.14493958      -0.24972989      -0.02264999
C        2.65894895      -0.18679993      -0.08052997
O        3.05738883       1.17583956       0.12840995
C        4.38995827       1.41783949       0.09968996
N        5.28424800       0.51225980      -0.10775995
N        6.56245722       1.06422953      -0.07950997
C        7.45286711       0.15966994      -0.31156987
H        0.79106972      -1.27438955      -0.16709994
H        0.70291975       0.38894984      -0.79477968
H        0.77976969       0.11820996       0.94207963
H        3.00478887      -0.52814979      -1.06247962
H        3.08476879      -0.82027965       0.70539973
H        4.59350835       2.48634907       0.27522988
H        8.51948647       0.43130981      -0.32422986
H        7.20250706      -0.89760965      -0.50371980
