12
Properties=species:S:1:pos:R:3 atomization_energy=-1301.43 smiles=C.C.C.N.C.O.O.H.H.H.H.H pbc="F F F"
C        1.00502959      -0.00268000      -0.00713000
C        2.48639903       0.05868997       0.00003000
C        3.28032880       1.12396959       0.00430000
N        4.53973807       0.64471973       0.01079999
C        4.51018806      -0.72809970       0.01056999
O        5.48771784      -1.45946948       0.01579000
O        3.19341885      -1.16353954       0.00358000
H        0.56240978       0.99845958      -0.00398000
H        0.64219977      -0.53706980       0.87622962
H        0.65046973      -0.52801978      -0.89920962
H        3.04376875       2.17618904       0.00325000
H        5.39888765       1.17264959       0.01528999
