14
Properties=species:S:1:pos:R:3 atomization_energy=-1375.68 smiles=C.C.C.C.O.N.O.H.H.H.H.H.H.H pbc="F F F"
C        1.17486960      -0.52331979       0.20552991
C        2.44580902       0.26297990      -0.05804998
C        2.17676914       1.74806932       0.01707999
C        2.25025911       2.39022903       1.38712952
O        2.44895912       1.71658935       2.38702896
N        1.86913925       2.39516917      -1.06952963
O        1.62851931       3.75111862      -0.83257966
H        1.37090941      -1.59767939       0.13987994
H        0.39976983      -0.27132991      -0.52559980
H        0.77387972      -0.30838989       1.20102954
H        2.82717895       0.02392999      -1.05747961
H        3.22551866      -0.01049000       0.66027974
H        2.12306927       3.48204871       1.41448942
H        1.40783948       4.08491830      -1.72454927
