18
Properties=species:S:1:pos:R:3 atomization_energy=-1700.41 smiles=C.C.C.C.N.O.C.H.H.H.H.H.H.H.H.H.H.H pbc="F F F"
C        2.55762911      -0.47485983       1.52105938
C        2.41339909      -0.07905997       0.06293997
C        2.64814891       1.40822945      -0.10409996
C        1.48697939       2.34023918       0.14784994
N        3.85414849       1.80457928      -0.38356985
O        3.92700839       3.20361883      -0.44506982
C        5.27041773       3.56819864      -0.73781969
H        2.39940909      -1.55033939       1.64210937
H        1.83100934       0.05245998       2.14722923
H        3.55742864      -0.23099992       1.89575931
H        1.41384950      -0.33164988      -0.30536987
H        3.13985876      -0.62790974      -0.54661977
H        0.54468976       1.78634936       0.14666994
H        1.43584938       3.10385866      -0.63290975
H        1.61472941       2.81903900       1.12198955
H        5.33283792       4.65865826      -0.77307970
H        5.56850775       3.16547871      -1.71072934
H        5.94238748       3.20146872       0.04462998
