12
Properties=species:S:1:pos:R:3 atomization_energy=-1258.68 smiles=C.C.N.O.C.C.O.H.H.H.H.H pbc="F F F"
C        0.95179962       0.06254998      -0.00534000
C        2.42729901      -0.02718999      -0.00192000
N        3.18637880       1.07851956      -0.00150000
O        4.50075844       0.63310972       0.00175000
C        4.51988818      -0.72544971       0.00310000
C        3.23240882      -1.18245960       0.00081000
O        2.84240891      -2.46712899       0.00112000
H        0.60985973       1.10263952       0.00425000
H        0.53675980      -0.43714983       0.87580968
H        0.54224978      -0.41926983      -0.89892966
H        5.49947799      -1.17716960       0.00558000
H        3.61337855      -3.06070876       0.00326000
