14
Properties=species:S:1:pos:R:3 atomization_energy=-1391.34 smiles=C.C.O.N.C.C.C.H.H.H.H.H.H.H pbc="F F F"
C        1.05738959      -0.06146998       0.42394982
C        2.51999896       0.00000000       0.00000000
O        2.64652895      -0.53873979      -1.32468951
N        2.78362885      -1.93660922      -1.25696948
C        2.94916875      -2.38938901      -2.45210898
C        3.00201878       1.36116943       0.00000000
C        3.39929870       2.48306901       0.00000000
H        0.91196963       0.35891986       1.42526939
H        0.69773970      -1.09646952       0.42907984
H        0.41811983       0.48989981      -0.27622990
H        3.12710872      -0.59513980       0.69437973
H        3.08115869      -3.47010865      -2.61751893
H        2.96861895      -1.74000935      -3.34347873
H        3.75685865       3.48686874      -0.00441000
