14
Properties=species:S:1:pos:R:3 atomization_energy=-1460.57 smiles=C.C.C.O.N.C.C.H.H.H.H.H.H.H pbc="F F F"
C        0.90816965       0.08676997      -0.00830999
C        2.38543902       0.03899999      -0.00261000
C        3.26554875       1.09499957       0.00630000
O        4.53839819       0.63502977       0.00877000
N        4.52723808      -0.74591971       0.00147000
C        3.23705878      -1.09992961      -0.00527000
C        2.87184890      -2.53496901      -0.01443000
H        0.54251977       1.11867959      -0.00000000
H        0.50446979      -0.42161982       0.87303965
H        0.51196980      -0.40474984      -0.90254967
H        3.15874879       2.16964912       0.01148000
H        1.78645925      -2.67476886      -0.01060000
H        3.27855869      -3.04020886       0.86814966
H        3.27080859      -3.02653881      -0.90812966
