18
Properties=species:S:1:pos:R:3 atomization_energy=-1760.27 smiles=C.C.C.C.C.N.C.H.H.H.H.H.H.H.H.H.H.H pbc="F F F"
C        0.75313972       1.06847955      -0.44299982
C       -0.49647979       0.33097988      -0.04561998
C        0.82360966      -0.38634984      -0.06734997
C        1.56707943      -0.88844965       1.14894950
C        1.38843949      -0.25787990       2.55020906
N        1.54808935      -1.60824942       3.14039875
C        1.09454953      -2.18254905       1.85170921
H        0.87889967       1.32899946      -1.48739940
H        1.14751954       1.80420924       0.24793990
H       -1.21455954       0.09474996      -0.82314966
H       -0.95140964       0.57909979       0.90571964
H        0.98187959      -1.09552958      -0.87460966
H        2.63592902      -0.95114961       0.88414967
H        0.40609984       0.18256993       2.75235895
H        2.15765909       0.46248982       2.84340890
H        2.51896894      -1.83484932       3.35716871
H        1.61129934      -3.09875879       1.55147943
H        0.01330000      -2.36010900       1.81095922
