16
Properties=species:S:1:pos:R:3 atomization_energy=-1638.25 smiles=C.C.C.C.C.C.N.H.H.H.H.H.H.H.H.H pbc="F F F"
C       -1.04825962      -0.03278999       1.10739963
C       -0.61503977       1.01553963       0.04558998
C        0.90690964       1.28864954       0.00327000
C        1.63974931      -0.03134999      -0.02926999
C        0.92802964      -1.17143953      -0.03626998
C       -0.55870979      -1.03615958       0.02452999
N       -1.01101962      -0.01615000      -0.98883964
H       -0.51890980      -0.02205999       2.06444919
H       -2.12718909      -0.06624998       1.30264951
H       -1.21132957       1.93318924       0.02185999
H        1.16144949       1.87627921      -0.88570965
H        1.20960956       1.85871923       0.88812963
H        2.72296892      -0.03811998      -0.07568997
H        1.38794947      -2.15087920      -0.08123996
H       -1.08331953      -1.99457917      -0.01881999
H       -2.01574926      -0.04805998      -1.15624957
