18
Properties=species:S:1:pos:R:3 atomization_energy=-1718.14 smiles=C.C.C.O.C.C.N.H.H.H.H.H.H.H.H.H.H.H pbc="F F F"
C       -0.24391990       3.67248866       0.76281972
C        1.08651959       3.68089861       0.08287997
C        1.67891932       2.57404907      -0.39117984
O        2.87871887       2.44711913      -1.03396959
C        3.63523852       3.64477865      -1.24821952
C        4.93066782       3.28914878      -1.98919921
N        4.67404795       2.85348877      -3.36562862
H       -0.15309994       4.10512827       1.76403936
H       -0.65338978       2.66239907       0.86382969
H       -0.95663965       4.27541856       0.19144992
H        1.55565942       4.65384832      -0.01302999
H        1.22349951       1.59236932      -0.30693987
H        3.89635847       4.08815849      -0.27978988
H        3.05343884       4.36462825      -1.83687932
H        5.44835769       2.48157900      -1.46004947
H        5.58945780       4.16261841      -2.01665916
H        4.00229849       2.08364920      -3.33484875
H        5.53002773       2.47130912      -3.76372862
