15
Properties=species:S:1:pos:R:3 atomization_energy=-1477.71 smiles=C.N.C.C.N.C.O.H.H.H.H.H.H.H.H pbc="F F F"
C        1.15374960      -0.01451999       0.33190988
N        2.58877891      -0.05909998       0.35269986
C        3.46272872       1.03660960      -0.11322996
C        4.44698816      -0.04791998      -0.61873977
N        4.72297800       0.15695995      -2.05546922
C        3.27465866      -1.02757962      -0.32579987
O        2.96302880      -2.14756912      -0.65867971
H        0.75392971      -0.99853963       0.59226978
H        0.81513966       0.24365991      -0.67638970
H        0.80784968       0.73309970       1.04882957
H        3.83630842       1.65049938       0.71167974
H        2.98168895       1.67377934      -0.86298968
H        5.33360804      -0.20517991       0.00214000
H        3.87067846       0.26234990      -2.60985891
H        5.17916819      -0.66074971      -2.46610907
