17
Properties=species:S:1:pos:R:3 atomization_energy=-1586.91 smiles=C.C.O.C.C.N.N.H.H.H.H.H.H.H.H.H.H pbc="F F F"
C        1.99204917      -0.40772984       1.27394948
C        2.36954897       0.13742995      -0.09606996
O        1.24026957       0.11709996      -0.95785961
C        2.98738886       1.53721943       0.04017998
C        2.04821924       2.71479894       0.19837992
N        4.28867856       1.62933939       0.01616999
N        4.80524808       2.87387890       0.11075995
H        2.85658892      -0.43093984       1.94496920
H        1.58718934      -1.42133945       1.18420952
H        1.21399949       0.20349992       1.74451927
H        3.12244866      -0.52071980      -0.54433977
H        0.47053982       0.45049983      -0.46773983
H        1.05977954       2.38092911       0.52295978
H        1.95013922       3.22498877      -0.76388967
H        2.42454910       3.41566869       0.94830963
H        5.82214759       2.80968886       0.20778992
H        4.66003801       3.39293869      -0.75926967
