17
Properties=species:S:1:pos:R:3 atomization_energy=-1578.67 smiles=C.C.O.C.N.N.C.H.H.H.H.H.H.H.H.H.H pbc="F F F"
C        1.09104957      -0.82956966       0.19941991
C        2.47863909      -0.31230989       0.54307976
O        3.42909876      -1.31757945       0.18216993
C        2.79323889       1.00246963      -0.19563993
N        4.11946850       1.53140938       0.17272994
N        5.19297777       0.80012967      -0.21406992
C        6.32271729       1.36645942       0.05627998
H        0.31739989      -0.11081995       0.48448980
H        0.89741965      -1.77513929       0.71696975
H        1.00339960      -1.03449961      -0.87295966
H        2.55263901      -0.16183994       1.62646937
H        4.25579829      -0.81802967      -0.00983000
H        2.03866926       1.75837932       0.04751998
H        2.76821898       0.84709968      -1.28071953
H        4.13144843       1.72683930       1.17815949
H        7.26275720       0.85941963      -0.21222992
H        6.41229741       2.35271897       0.54591981
