16
Properties=species:S:1:pos:R:3 atomization_energy=-1605.31 smiles=C.C.O.C.C.C.N.H.H.H.H.H.H.H.H.H pbc="F F F"
C        0.97531960      -0.34336985      -0.05073998
C        2.47386902      -0.06918997      -0.02734999
O        3.07576889      -0.62641972      -1.19246958
C        2.77255882       1.43281939       0.01957999
C        4.27117838       1.74258931       0.08866997
C        4.84859809       1.36342943       1.38422947
N        5.29131782       1.07544957       2.41870915
H        0.48899981       0.03488998       0.85350966
H        0.78603969      -1.41952948      -0.12630996
H        0.50210980       0.12164996      -0.92262962
H        2.91083888      -0.57409979       0.84039966
H        2.51074900      -0.42505982      -1.95870927
H        2.25574908       1.88939930       0.87298963
H        2.37883904       1.90285928      -0.89090963
H        4.41141804       2.82048889      -0.05615998
H        4.80969820       1.24556954      -0.72546971
