16
Properties=species:S:1:pos:R:3 atomization_energy=-1562.32 smiles=C.C.O.C.C.N.C.H.H.H.H.H.H.H.H.H pbc="F F F"
C        1.44277941       3.13215887      -0.38568984
C        2.69522888       2.68381897      -0.47632981
O        3.11567887       1.59563942       0.23935990
C        4.50435820       1.28299947      -0.00297000
C        5.57123797       2.13570905       0.72225974
N        6.34493758       0.90045967       0.99155958
C        5.08836779       0.12756995       0.84109969
H        1.11349961       3.99311842      -0.95633963
H        0.72364971       2.64283886       0.26311990
H        3.43239875       3.15136885      -1.11522959
H        4.71086812       1.13850955      -1.07409960
H        5.21777789       2.63615889       1.63156936
H        6.09137747       2.86909900       0.09905996
H        7.03548698       0.68971973       0.26999990
H        5.20264812      -0.82659966       0.31828989
H        4.57031810      -0.05317998       1.79037934
