15
Properties=species:S:1:pos:R:3 atomization_energy=-1436.2 smiles=C.C.C.N.C.N.O.H.H.H.H.H.H.H.H pbc="F F F"
C        0.83601970      -0.06923997      -0.12946995
C        2.31465910       0.01810999      -0.30009986
C        3.05932876       1.06154953       0.08793997
N        4.41414826       1.06808957      -0.09844996
C        5.03038813       2.14989915       0.25492991
N        6.38610745       2.33859902       0.13728995
O        7.09646737       1.13360953       0.04922998
H        0.58221974      -0.94273960       0.47878982
H        0.35370985      -0.17802994      -1.10578963
H        0.42195984       0.81836969       0.35899985
H        2.80558898      -0.82907970      -0.77261970
H        2.57811892       1.91541919       0.56245981
H        4.52626812       3.03846878       0.67678971
H        6.81510742       3.01914879       0.75991968
H        6.43671752       0.51804979      -0.34391987
