14
Properties=species:S:1:pos:R:3 atomization_energy=-1449.32 smiles=C.C.C.O.C.C.N.H.H.H.H.H.H.H pbc="F F F"
C       -0.13712994      -0.20727992       0.71801969
C        0.84892966       0.24792991      -0.31066986
C        1.89659919       1.03264958      -0.01963999
O        2.86697891       1.52190935      -0.84805968
C        2.79089901       1.17716960      -2.23510914
C        3.91071839       1.78763928      -2.96946880
N        4.78429803       2.25680912      -3.57520866
H       -0.14015995      -1.30019950       0.77269969
H       -1.14228960       0.12659996       0.44286984
H        0.09137997       0.18423994       1.71436935
H        0.65971975      -0.10177996      -1.31991944
H        2.09264922       1.38533948       0.98931964
H        1.84595921       1.54235941      -2.65447890
H        2.84031885       0.08772996      -2.34794916
