15
Properties=species:S:1:pos:R:3 atomization_energy=-1462.38 smiles=C.C.O.C.N.N.C.H.H.H.H.H.H.H.H pbc="F F F"
C        0.95368964       0.04110999      -0.08086997
C        2.46971892      -0.03431999      -0.01063000
O        3.02540887       0.15590993      -1.30116946
C        2.99888886      -1.29650954       0.67896973
N        3.27844868      -0.81270971       2.02953916
N        3.47752870       0.52661978       2.06903922
C        2.99277891       0.99307963       0.96347959
H        0.48998980      -0.05167998       0.90685961
H        0.55729976      -0.74868967      -0.72799971
H        0.63385978       0.99557960      -0.51413979
H        3.99334855       0.07893997      -1.22316946
H        3.92126836      -1.65516940       0.20719992
H        2.27423916      -2.11582913       0.69224973
H        4.00736832      -1.33991947       2.51297910
H        2.95554895       2.06433917       0.71919972
