16
Properties=species:S:1:pos:R:3 atomization_energy=-1615.83 smiles=C.C.C.O.N.C.C.H.H.H.H.H.H.H.H.H pbc="F F F"
C        0.97388965       0.10997996       0.52547978
C        2.40944910      -0.30477988       0.25661989
C        3.31276876       0.88147963      -0.02691999
O        2.91928894       2.04381921      -0.03494999
N        4.62170839       0.49493981      -0.27262989
C        5.62768800       1.38064939      -0.55406979
C        6.87975721       0.98113962      -0.78684967
H        0.35413985      -0.76934968       0.72567971
H        0.54996979       0.63897977      -0.33445988
H        0.91295966       0.77626967       1.39229941
H        2.43905916      -0.97850964      -0.60705974
H        2.80345880      -0.84136969       1.12698962
H        4.84623829      -0.49228980      -0.24272991
H        5.35733777       2.43576902      -0.57958976
H        7.17438727      -0.06195997      -0.76736970
H        7.65230721       1.71193927      -1.00693961
