17
Properties=species:S:1:pos:R:3 atomization_energy=-1585.54 smiles=C.C.C.C.O.N.N.H.H.H.H.H.H.H.H.H.H pbc="F F F"
C        1.18133950      -0.15355994       0.11949995
C        2.53402908       0.48623981      -0.07970997
C        3.73317862      -0.44669982      -0.16122994
C        4.01254843      -0.78939966      -1.61750934
O        4.69240807       0.27687990      -2.27145923
N        2.57487898       1.77954928      -0.23249991
N        3.78810861       2.33686904      -0.42717982
H        0.39712984       0.60772974       0.16685994
H        1.18250956      -0.72322970       1.05213958
H        0.97346964      -0.82733969      -0.71502969
H        3.48916874      -1.35969947       0.39327984
H        4.60390843       0.01143000       0.31601988
H        3.09345883      -1.00226959      -2.17346916
H        4.65867794      -1.67037930      -1.67852935
H        4.29880815       1.11109956      -1.93179928
H        3.66261847       3.31090882      -0.72304973
H        4.28472807       2.42118906       0.46597981
