15
Properties=species:S:1:pos:R:3 atomization_energy=-1507.4 smiles=C.C.N.N.C.C.C.H.H.H.H.H.H.H.H pbc="F F F"
C        1.88581922      -0.10305996       0.17734994
C        0.88358962      -1.22373948       0.46567982
N       -0.07214998      -0.59570975      -0.47842981
N       -1.33984945      -0.40699985       0.01895999
C       -1.41667940       0.80957967       0.45147982
C       -0.15903995       1.61080932       0.32489987
C        0.72004970       0.66789977      -0.46728982
H        2.66985899      -0.38670986      -0.53354977
H        2.34896908       0.36316984       1.05139956
H        1.21257949      -2.22572924       0.17449993
H        0.54879979      -1.25491954       1.50952935
H       -2.31835903       1.23997952       0.90795965
H        0.23125991       1.83822930       1.32101948
H       -0.37117985       2.54124903      -0.20864992
H        0.94649966       1.04686958      -1.47100947
