17
Properties=species:S:1:pos:R:3 atomization_energy=-1614.65 smiles=C.C.N.N.C.C.O.H.H.H.H.H.H.H.H.H.H pbc="F F F"
C        1.18234958      -0.49474981      -0.34229987
C        2.63262903      -0.45910982       0.08008997
N        3.20675885      -1.53922937       0.50096980
N        3.28591869       0.74236972       0.03859999
C        4.73788826       0.88573967       0.09142997
C        5.30402775       0.59713977       1.48725935
O        5.45536796      -0.79963971       1.72250930
H        0.96624962       0.31365987      -1.04622961
H        0.55101980      -0.37701986       0.54294981
H        0.95122960      -1.45002939      -0.82230965
H        2.54750912      -2.32716918       0.47088980
H        2.81261894       1.50074936      -0.44132983
H        4.97369787       1.92343929      -0.16879993
H        5.19979778       0.23791991      -0.66160971
H        4.66873839       1.01635958       2.27440898
H        6.29987728       1.04216960       1.57837932
H        4.63324800      -1.21613951       1.36324952
