13
Properties=species:S:1:pos:R:3 atomization_energy=-1350.31 smiles=C.C.C.O.C.N.N.H.H.H.H.H.H pbc="F F F"
C        0.96153961      -0.00665000      -0.00806000
C        2.43971901       0.02254999      -0.00118000
C        3.28746876       1.04992961       0.00421000
O        4.64190800       0.67851976       0.01078000
C        4.54468830      -0.70480971       0.00936000
N        5.59644788      -1.43666946       0.01506000
N        3.23636865      -1.08131955       0.00173000
H        0.54299977       1.00494961      -0.00448000
H        0.58390979      -0.53150980       0.87508965
H        0.59206974      -0.52200978      -0.90019964
H        3.10706882       2.10965912       0.00452000
H        5.31747801      -2.41800893       0.01287999
H        2.88779876      -2.02414924       0.00095000
