14
Properties=species:S:1:pos:R:3 atomization_energy=-1512.19 smiles=C.C.C.C.N.C.C.H.H.H.H.H.H.H pbc="F F F"
C        2.50500896       0.26875988       0.97334959
C        2.15592911      -0.01195000      -0.52356979
C        2.46305915       1.40134939      -0.75506968
C        2.58734894       2.52826911      -1.48263942
N        3.03571887       3.48300858      -0.56866981
C        3.16337881       2.92441884       0.70393974
C        2.79020889       1.64000934       0.54416976
H        3.36191860      -0.24376991       1.42308950
H        1.70014934       0.20490992       1.71475932
H        1.13077950      -0.29163989      -0.78885967
H        2.80279896      -0.69600972      -1.08502958
H        2.41975910       2.78093900      -2.52001889
H        3.23328870       4.44832805      -0.79572971
H        3.49249851       3.51738871       1.54562938
