12
Properties=species:S:1:pos:R:3 atomization_energy=-1329.29 smiles=C.C.C.O.C.C.N.H.H.H.H.H pbc="F F F"
C        2.03652924      -1.13325954      -0.28789990
C        3.17990878      -0.44212981      -0.20409992
C        3.16603863       1.03350959       0.03922998
O        2.10657917       1.63590934       0.20997992
C        4.49364825       1.74226936       0.14348995
C        5.27604774       1.58722934      -1.08035956
N        5.91327753       1.43956937      -2.03915916
H        2.04325916      -2.20320917      -0.46691981
H        1.06737964      -0.65043977      -0.18463993
H        4.13825835      -0.93724963      -0.31189989
H        5.03073786       1.34784949       1.01252957
H        4.30527843       2.80478884       0.33335987
