17
Properties=species:S:1:pos:R:3 atomization_energy=-1569.66 smiles=C.C.C.N.N.O.C.H.H.H.H.H.H.H.H.H.H pbc="F F F"
C        2.23805915      -1.00155960       1.09472957
C        2.19598922      -0.09194996      -0.11965995
C        2.78100889       1.27108956       0.20506991
N        2.06050916       2.16546925       0.81094970
N        4.07566834       1.57659938      -0.13709994
O        4.95828800       0.50062982       0.00411000
C        5.69868796       0.42335984      -1.21171955
H        1.82173932      -1.98280917       0.84860964
H        1.65550929      -0.58029975       1.92130923
H        3.26253868      -1.14315951       1.45005942
H        1.16039953       0.03987999      -0.45165983
H        2.74889898      -0.54355976      -0.95047961
H        1.12394953       1.79292927       0.99991963
H        4.38522807       2.41367893       0.35340986
H        6.38719752      -0.42260984      -1.13799958
H        6.28197740       1.33721953      -1.36536948
H        5.02840783       0.25218990      -2.06062914
