13
Properties=species:S:1:pos:R:3 atomization_energy=-1374.87 smiles=C.N.C.C.N.C.O.H.H.H.H.H.H pbc="F F F"
C        0.97482964       0.03367998      -0.00793000
N        2.40886899       0.01133999       0.00135000
C        3.24791861       1.10267952       0.00306000
C        4.51502828       0.66732975       0.00896000
N        4.50783835      -0.70401973       0.01027000
C        3.18091886      -1.16809955       0.00478000
O        2.80994902      -2.32704906       0.00294000
H        0.60196977       1.06167960       0.00717000
H        0.60620976      -0.50847981       0.86758968
H        0.61880973      -0.47824980      -0.90653965
H        2.87935879       2.11663911       0.00002000
H        5.43201773       1.23547956       0.01195999
H        5.30627804      -1.31956946       0.01353999
