13
Properties=species:S:1:pos:R:3 atomization_energy=-1301.04 smiles=C.C.O.C.N.N.C.H.H.H.H.H.H pbc="F F F"
C        1.87422927       3.07340884       0.94492965
C        3.00242881       2.66871896       0.35940985
O        3.37109866       1.32260942       0.33397988
C        4.70354799       1.04515960       0.21287991
N        5.64926788       1.92246920       0.15812994
N        6.89259734       1.30710947       0.04320998
C        7.83529683       2.18927923       0.04381998
H        1.59460940       4.12095827       0.94534965
H        1.21473958       2.36682909       1.43647945
H        3.68391851       3.33503875      -0.15300994
H        4.85296796      -0.04632998       0.17716993
H        8.88511648       1.86976932      -0.03926999
H        7.64598681       3.27356859       0.12567996
