18
Properties=species:S:1:pos:R:3 atomization_energy=-1723.84 smiles=C.C.C.C.N.C.O.H.H.H.H.H.H.H.H.H.H.H pbc="F F F"
C        1.11186955      -0.74420972       0.02459999
C        2.50336906      -0.20710991      -0.09500996
C        2.91253883       1.07466961       0.00898000
C        1.99805919       2.25581923       0.21019992
N        2.24575904       2.86393882       1.51510941
C        4.37989833       1.41856949      -0.13321994
O        4.88742783       1.92388919       1.09267963
H        1.11752959      -1.62739934       0.67103971
H        0.74307972      -1.04594958      -0.95948960
H        0.40732983      -0.03283999       0.46037983
H        3.25665861      -0.97687964      -0.26727989
H        0.94049966       1.99392916       0.12853995
H        2.19086917       2.99653889      -0.57431976
H        1.93466929       2.20538906       2.23260905
H        1.63471934       3.67529862       1.61396939
H        4.52004816       2.17667906      -0.91047962
H        4.98373813       0.54919980      -0.41097983
H        4.16188841       2.45936905       1.47987942
