12
Properties=species:S:1:pos:R:3 atomization_energy=-1269.43 smiles=C.C.C.C.O.N.C.H.H.H.H.H pbc="F F F"
C        0.99999962       0.00000000       0.00000000
C        2.19015911       0.00000000       0.00000000
C        3.63415853       0.00000000       0.00000000
C        4.24712818      -1.22204949       0.64711972
O        4.54204842      -0.84387968       2.00044927
N        4.68888805       0.56405978       2.03319922
C        4.18107846       1.01248958       0.93535961
H       -0.06631997      -0.00095000       0.00808999
H        4.02538831       0.15840993      -1.00878958
H        5.19495807      -1.49256941       0.16798993
H        3.59492860      -2.10058921       0.65021974
H        4.13318826       2.08370913       0.69283975
