16
Properties=species:S:1:pos:R:3 atomization_energy=-1644.84 smiles=C.C.N.C.C.C.C.H.H.H.H.H.H.H.H.H pbc="F F F"
C        0.86591968      -1.23297947       0.84239964
C        1.15428959      -0.35653987      -0.34098986
N        1.03676958       1.11077960      -0.28177989
C       -0.18591993       1.64612938       0.32478988
C       -1.42374947       0.82213964       0.11357995
C       -1.36394948      -0.48672980      -0.18123992
C       -0.09473996      -1.20535954      -0.32150986
H        1.47270943      -2.12170920       0.96953964
H        0.57100980      -0.77526968       1.77843928
H        1.94953917      -0.69385973      -1.00300962
H        1.84775921       1.52727934       0.17157994
H       -0.03654999       1.77156931       1.40334950
H       -0.35364986       2.64430894      -0.09268996
H       -2.38466916       1.31161951       0.23401991
H       -2.28318910      -1.04974957      -0.31711986
H       -0.11921995      -2.06667917      -0.97943961
