16
Properties=species:S:1:pos:R:3 atomization_energy=-1576.91 smiles=C.C.O.N.C.C.C.H.H.H.H.H.H.H.H.H pbc="F F F"
C        0.99286962      -0.01751000      -0.04234998
C        2.51630912       0.02648999      -0.04072998
O        3.00894880      -1.10261959      -0.78129970
N        3.29048866      -0.67306972      -2.10255916
C        3.31592870       0.61438977      -2.07794916
C        3.08052887       1.24165954      -0.75333970
C        4.40598837       1.71525932      -0.17825993
H        0.57439975       0.82588967       0.51550979
H        0.64040973      -0.94859962       0.41490983
H        0.59068975       0.00198000      -1.06142954
H        2.87638884      -0.05042998       0.99102963
H        3.53048849       1.23060958      -2.96266873
H        2.37431904       2.07258914      -0.82610970
H        5.14870777       0.90970963      -0.14419995
H        4.27101840       2.09688915       0.83904969
H        4.82656806       2.52024901      -0.79132968
