14
Properties=species:S:1:pos:R:3 atomization_energy=-1396.15 smiles=C.C.O.N.C.C.C.H.H.H.H.H.H.H pbc="F F F"
C        0.02577999       0.11858995       0.45346983
C        1.49696944      -0.24399991       0.46017982
O        2.22214916       0.79292972      -0.20051992
N        3.58293857       0.44789981      -0.20400992
C        4.23935840       1.38071942      -0.79594968
C        5.64777761       1.11222963      -0.84925964
C        6.82771742       0.89141965      -0.89698968
H       -0.56821977      -0.65134974       0.95368964
H       -0.33792987       0.23451990      -0.57286980
H       -0.13787995       1.07589960       0.95925961
H        1.65227932      -1.19231957      -0.06621998
H        1.85551929      -0.34087988       1.49094945
H        3.82262854       2.30146899      -1.23167946
H        7.87227698       0.68546972      -0.93410962
