14
Properties=species:S:1:pos:R:3 atomization_energy=-1410.14 smiles=C.C.C.C.C.N.O.H.H.H.H.H.H.H pbc="F F F"
C        0.99999962       0.00000000       0.00000000
C        2.44399905       0.00000000       0.00000000
C        3.63415853       0.00000000       0.00000000
C        5.07815797       0.00000000       0.00000000
C        5.61693768       1.40335946       0.00301000
N        6.40100761       1.82140927       0.94552963
O        6.75457719       3.14985865       0.68242976
H        0.60600979       1.02087959       0.01166999
H        0.60591977      -0.52049980       0.87825963
H        0.60591977      -0.50028980      -0.88992963
H        5.45791802      -0.49202980      -0.90170966
H        5.46999762      -0.54214979       0.86685968
H        5.33102770       2.05405920      -0.84331963
H        7.31454718       3.37348874       1.44955942
