18
Properties=species:S:1:pos:R:3 atomization_energy=-1707.22 smiles=C.N.C.C.C.O.C.H.H.H.H.H.H.H.H.H.H.H pbc="F F F"
C        1.02958963       0.02249999       0.11006995
N        2.48194891       0.04993998      -0.02493999
C        3.07889881       1.00903958       0.93514960
C        4.15774841      -0.05681998       1.24390945
C        5.43926771       0.00074000       0.42908984
O        6.25373749       1.06680962       0.90562962
C        3.09890868      -1.06413958       0.73509968
H        0.61739976      -0.81209970      -0.46771983
H        0.60004979       0.94393962      -0.29829990
H        0.68404972      -0.08082997       1.14606952
H        2.46103898       1.26428949       1.80597934
H        3.43828867       1.93837919       0.48314982
H        4.37877849      -0.16487993       2.31342898
H        5.25878778       0.14569995      -0.64115972
H        6.00667744      -0.92727965       0.55232978
H        5.87148744       1.89335926       0.56453978
H        3.47656858      -1.88296926       0.11501995
H        2.48715905      -1.49302941       1.53956939
