16
Properties=species:S:1:pos:R:3 atomization_energy=-1570.55 smiles=C.C.C.O.C.N.O.H.H.H.H.H.H.H.H.H pbc="F F F"
C        0.25250991       0.39927983       0.60050978
C        1.50445939      -0.35673987       0.19301993
C        2.69703885       0.57660979       0.01605999
O        3.85005846      -0.17719992      -0.38824984
C        4.60155822      -0.67632971       0.61777978
N        5.64457754      -1.36796950       0.10953996
O        4.39808839      -0.54999976       1.81374925
H       -0.58814978      -0.29231989       0.71376974
H       -0.01944999       1.14419949      -0.15382993
H        0.39970984       0.91392962       1.55521935
H        1.32365950      -0.89984966      -0.74262969
H        1.73391934      -1.12116960       0.94464963
H        2.89947892       1.15616958       0.92468965
H        2.49348903       1.29792953      -0.78280972
H        5.74737780      -1.46008946      -0.88884966
H        6.28873736      -1.81754923       0.74206970
