14
Properties=species:S:1:pos:R:3 atomization_energy=-1361.68 smiles=C.N.C.C.C.N.H.H.H.H.H.H.H.H pbc="F F F"
C        0.91609967       0.07847997       0.07155997
N        2.37440912       0.01751999      -0.04281998
C        2.74951896      -0.73875968      -1.24127952
C        2.94000887       1.38517950      -0.06703997
C        4.41720803       1.43215942       0.02632999
N        5.57639764       1.49199940       0.08020997
H        0.62277979       0.59426976       0.99271961
H        0.49164979      -0.93001964       0.13095995
H        0.45565982       0.59768979      -0.77686971
H        2.32292900      -1.74777926      -1.20560948
H        3.83500841      -0.86868965      -1.30501954
H        2.40363917      -0.25303990      -2.16099920
H        2.54873898       1.94594926       0.79166970
H        2.61396888       1.92032931      -0.96816961
