18
Properties=species:S:1:pos:R:3 atomization_energy=-1717.09 smiles=C.C.N.C.O.C.C.H.H.H.H.H.H.H.H.H.H.H pbc="F F F"
C        1.09197954       0.17896993       0.11349996
C        2.59042890      -0.04025998      -0.07056997
N        2.86506876      -0.64395978      -1.37536949
C        3.34219866       1.25462949       0.00593000
O        3.69019853       1.66877939       1.33799949
C        4.77314802       1.28798945       0.47961980
C        5.68132758       2.40024910       0.09734996
H        0.88619968       0.62761975       1.09162955
H        0.54450978      -0.76807969       0.05549998
H        0.68577971       0.85487969      -0.64792977
H        2.94448876      -0.72820971       0.70637972
H        2.44258902      -0.07767997      -2.10998918
H        2.39938916      -1.54952941      -1.42563943
H        2.99721893       2.01173921      -0.68560970
H        5.28869812       0.35793987       0.67730970
H        5.13999780       3.33974877      -0.05560998
H        6.20596766       2.15460916      -0.83104965
H        6.42943727       2.56211910       0.87952968
