16
Properties=species:S:1:pos:R:3 atomization_energy=-1593.91 smiles=C.C.O.C.C.C.N.H.H.H.H.H.H.H.H.H pbc="F F F"
C        1.33566946      -0.69799973       0.65087977
C        2.49803907      -0.03006999      -0.05763998
O        3.65726855      -0.15994993       0.76451968
C        4.82149822       0.46623982       0.19819993
C        5.85114752       0.58261975       1.31670954
C        5.38483784      -0.31284988      -0.92453964
N        5.82364795      -0.90412964      -1.82308929
H        0.42033984      -0.62022972       0.05756998
H        1.16361953      -0.23659990       1.62878931
H        1.55136941      -1.75620928       0.83113967
H        2.27452909       1.03056961      -0.21673992
H        2.66347905      -0.51243980      -1.02663962
H        4.55943808       1.47697938      -0.13688995
H        6.11145749      -0.40376985       1.71923933
H        5.44512785       1.16545954       2.15062915
H        6.77090757       1.06516959       0.96897959
