17
Properties=species:S:1:pos:R:3 atomization_energy=-1570.95 smiles=C.C.N.C.C.N.O.H.H.H.H.H.H.H.H.H.H pbc="F F F"
C        1.18281955      -0.66774976       0.23507990
C        2.65899891      -0.54885979       0.57912976
N        3.25973882       0.54487976      -0.18398992
C        4.68719794       0.67070973       0.13205995
C        5.25372804       1.80554924      -0.68584973
N        5.68896766       2.88568876      -0.11999995
O        6.15743780       3.75797849      -1.10916960
H        0.72767969      -1.48494939       0.80473970
H        1.03986960      -0.88012966      -0.83056965
H        0.64104976       0.25349990       0.47714983
H        3.15588886      -1.49548939       0.34052986
H        2.76355893      -0.36951985       1.65489941
H        2.79297898       1.42099944       0.06066997
H        5.22674777      -0.23908991      -0.14957993
H        4.84215809       0.87415963       1.19692953
H        5.27381815       1.67189935      -1.78298931
H        6.46170741       4.52427824      -0.58776977
