13
Properties=species:S:1:pos:R:3 atomization_energy=-1320.55 smiles=C.C.N.N.C.C.O.H.H.H.H.H.H pbc="F F F"
C        0.98082964       0.07102997       0.01031000
C        2.46716912       0.02495999      -0.00696000
N        3.23563866       1.07200953      -0.02705999
N        4.59525801       0.62791977      -0.01243999
C        4.59861806      -0.66612973       0.01366000
C        3.22928875      -1.26699953      -0.02299999
O        3.01520889      -2.03285921      -1.18180959
H        0.63239973       1.10670963       0.04620998
H        0.61209974      -0.46393981       0.88888965
H        0.59148976      -0.40823983      -0.89152967
H        5.50043786      -1.29018952       0.05104998
H        3.03976879      -1.85847926       0.87450967
H        3.19945865      -1.45696938      -1.94793927
