16
Properties=species:S:1:pos:R:3 atomization_energy=-1621.62 smiles=C.C.C.C.C.N.O.H.H.H.H.H.H.H.H.H pbc="F F F"
C        0.97374960       0.03601999      -0.08633996
C        2.47171890      -0.08353996       0.00901000
C        2.98933888      -1.48888941      -0.13690994
C        3.22961879       1.01036962       0.21709991
C        4.71308813       1.03802960       0.25719989
N        5.21335806       2.10436913       0.93908963
O        5.44263785       0.21477992      -0.27113990
H        0.63227974       1.07306958       0.00172000
H        0.49394979      -0.54026980       0.71181973
H        0.62429977      -0.34690987      -1.05112956
H        2.35746911      -2.18400904       0.42793984
H        4.00239841      -1.62109939       0.24904991
H        2.97176880      -1.79040924      -1.18911950
H        2.75348889       1.97891924       0.32854987
H        4.64354816       2.77379903       1.43340946
H        6.21941742       2.16740917       1.01989960
