18
Properties=species:S:1:pos:R:3 atomization_energy=-1733.79 smiles=C.C.N.C.C.O.C.H.H.H.H.H.H.H.H.H.H.H pbc="F F F"
C        0.96560965      -0.01235000      -0.01049999
C        2.48944895       0.01796999      -0.01895999
N        2.94204872       0.13514995      -1.41579939
C        3.07067887       1.13205958       0.83814969
C        4.46282801       0.62641972       1.16123955
O        4.41124847      -0.80647965       1.13558957
C        3.11263878      -1.20926954       0.65847974
H        0.57624978      -0.10464996       1.00952961
H        0.58200974      -0.86216967      -0.58630978
H        0.54673976       0.90500964      -0.43960981
H        3.95593842       0.02400999      -1.46039945
H        2.73188883       1.06389961      -1.77764935
H        2.49879909       1.23168955       1.76987932
H        3.08278875       2.11682912       0.35946985
H        5.19118773       0.94938960       0.41028984
H        4.80878829       0.96271963       2.14270922
H        3.22441875      -2.06841924      -0.01115999
H        2.53033899      -1.53189940       1.52952938
