14
Properties=species:S:1:pos:R:3 atomization_energy=-1425.91 smiles=C.C.O.C.N.C.O.H.H.H.H.H.H.H pbc="F F F"
C        1.10393953      -0.40299983       0.48115981
C        2.52386896      -0.64353977       0.04338998
O        2.94759874      -1.78309933      -0.16473993
C        3.37302874       0.59395977      -0.21943991
N        4.76695833       0.28614989       0.02821999
C        5.32869767       0.51861981       1.25587954
O        4.78589831       1.10823951       2.17801920
H        0.55856981       0.10757996      -0.31623989
H        1.09691955       0.20278992       1.39106941
H        0.61649976      -1.35821942       0.69434970
H        3.04710886       1.41532943       0.42454983
H        3.26160859       0.87888964      -1.26860953
H        5.19741779      -0.42273983      -0.55545976
H        6.34904755       0.10907995       1.32816941
