16
Properties=species:S:1:pos:R:3 atomization_energy=-1632.12 smiles=C.C.C.N.C.C.C.H.H.H.H.H.H.H.H.H pbc="F F F"
C       -1.00479959      -0.01656000       1.05807959
C       -0.54294981      -1.07333957       0.00397000
C       -1.05490961       0.00790999      -1.00098958
N       -0.67972975       1.04134959       0.03245999
C        0.79926967       1.23549950      -0.00123000
C        1.59922933      -0.05207998      -0.03600999
C        0.94333965      -1.22344955      -0.03395999
H       -0.44767984       0.03637999       2.00045924
H       -2.07341918      -0.06542997       1.30736950
H       -1.07503953      -2.02745919       0.00559000
H       -2.13441913      -0.03562998      -1.19910955
H       -0.54424975       0.08354997      -1.96781918
H        1.05340957       1.83638930      -0.88221965
H        1.09629957       1.81545930       0.88034963
H        2.68176903      -0.00220000      -0.06169997
H        1.42572939      -2.19163903      -0.05722998
