21
Properties=species:S:1:pos:R:3 atomization_energy=-2044.34 smiles=C.C.C.C.C.C.C.H.H.H.H.H.H.H.H.H.H.H.H.H.H pbc="F F F"
C        1.05167959       0.22879992       0.84675967
C        2.52029898       0.04711998       0.49906981
C        3.28835873       1.36415942       0.60226973
C        4.75207836       1.15510954       0.23932990
C        5.68326800       2.37707903       0.46380983
C        6.77874750       1.37509950       0.88033966
C        5.64408802       0.40427984       1.26526954
H        0.52143980      -0.72486973       0.76250967
H        0.57390978       0.94426961       0.17019994
H        0.93417964       0.59331979       1.87208925
H        2.60496898      -0.35531985      -0.51762979
H        2.96001874      -0.69878972       1.17177955
H        3.19707866       1.76906933       1.61722938
H        2.84599883       2.10058921      -0.07903997
H        4.85915816       0.75033973      -0.77801972
H        5.37097779       3.04586890       1.27476956
H        5.90297788       2.97538874      -0.42429983
H        7.39599719       1.02356957       0.04577998
H        7.43015729       1.69404936       1.69756938
H        5.83142783      -0.65059975       1.04844956
H        5.31915804       0.50160981       2.30790898
