18
Properties=species:S:1:pos:R:3 atomization_energy=-1714.18 smiles=C.C.C.N.C.C.O.H.H.H.H.H.H.H.H.H.H.H pbc="F F F"
C        2.37016894      -0.45672983      -1.52131941
C        2.42922909       0.06417997      -0.09348996
C        3.33031865       1.28945953       0.00591000
N        2.72352884       2.52009913      -0.56286978
C        3.23517866       3.29542880       0.58526980
C        3.37456872       1.98782918       1.39210940
O        4.57577804       1.81833929       2.17523926
H        1.75017931      -1.35730951      -1.57163943
H        3.37038860      -0.70930972      -1.88870930
H        1.94210928       0.28860990      -2.19940906
H        2.82388880      -0.72795972       0.55341979
H        1.41470945       0.28610990       0.25848990
H        4.33370809       1.09093956      -0.39647984
H        1.70358937       2.49510900      -0.60648978
H        4.18190838       3.80691839       0.37754986
H        2.52793906       4.02404843       0.99231961
H        2.49215900       1.78550935       2.01291923
H        5.30639815       2.02577917       1.56670938
