15
Properties=species:S:1:pos:R:3 atomization_energy=-1445.16 smiles=C.C.O.C.N.N.C.H.H.H.H.H.H.H.H pbc="F F F"
C        0.83822967      -0.31562988      -0.00320000
C        2.35323903      -0.32019988       0.10913996
O        2.90429895      -0.98516961      -1.01632961
C        2.86114880       1.10536962       0.21969992
N        3.24075872       1.75432928      -0.83556966
N        3.62429869       3.04721887      -0.49918979
C        4.01017854       3.69672861      -1.54552945
H        0.37587986       0.18797993       0.85139966
H        0.45452981      -1.33935942      -0.06055997
H        0.51480980       0.19650992      -0.91656963
H        2.66159893      -0.85995968       1.00903958
H        2.97911871      -0.30931990      -1.71763930
H        2.83961889       1.56764944       1.22240956
H        4.34845836       4.73971816      -1.44922937
H        4.02095838       3.25767879      -2.55734903
