16
Properties=species:S:1:pos:R:3 atomization_energy=-1579.68 smiles=C.C.C.N.C.C.O.H.H.H.H.H.H.H.H.H pbc="F F F"
C        0.95078960      -0.89877965      -1.24820955
C        1.81698931      -0.57970974      -0.27929989
C        2.46870909       0.75992971      -0.13032994
N        3.91821843       0.59130979      -0.18353992
C        4.58805800       1.89359922      -0.10546996
C        6.08387768       1.66909935      -0.14635993
O        6.78935752       1.97254926      -1.10532962
H        0.51366979      -1.89254927      -1.29483949
H        0.65927975      -0.18685992      -2.01450917
H        2.07408913      -1.32977941       0.46714981
H        2.17320926       1.18368958       0.83653969
H        2.12877927       1.44406945      -0.91704963
H        4.15270835       0.16300993      -1.08251951
H        4.35552818       2.40894898       0.83228967
H        4.30770838       2.53765912      -0.94592964
H        6.51736764       1.18795953       0.74749968
