17
Properties=species:S:1:pos:R:3 atomization_energy=-1621.33 smiles=C.C.N.C.C.C.H.H.H.H.H.H.H.H.H.H.H pbc="F F F"
C        1.10919951       0.16991993       0.11055996
C        2.60907895      -0.03117999      -0.08089997
N        2.88347885      -0.69244971      -1.35278950
C        3.33711872       1.28321951      -0.09473996
C        3.84226849       1.88828929       1.19210950
C        4.81816795       1.33827945       0.18997992
H        0.90683961       0.67062974       1.06375956
H        0.58017977      -0.78923969       0.11493995
H        0.67982974       0.79221972      -0.68313976
H        2.98752891      -0.66731972       0.72777974
H        2.49813899      -0.13846995      -2.11559913
H        2.39417902      -1.58524942      -1.38023948
H        2.95342886       1.96568926      -0.84627967
H        3.70624857       1.33932952       2.11675922
H        3.78280839       2.96492886       1.30304946
H        5.41464775       2.03801925      -0.38362984
H        5.32893789       0.41095984       0.42401984
