20
Properties=species:S:1:pos:R:3 atomization_energy=-1870.07 smiles=C.C.C.N.C.C.O.H.H.H.H.H.H.H.H.H.H.H.H.H pbc="F F F"
C        0.95490960      -0.04356998       0.26653990
C        2.47702896      -0.03653999       0.34371987
C        3.10860880       1.30327946      -0.06643997
N        2.65520889       2.41738895       0.79680969
C        4.65951821       1.27212954      -0.01269999
C        5.29210812       0.31996988      -1.01648960
O        5.14459780       2.59242887      -0.29437990
H        0.57498976      -1.05241961       0.45864981
H        0.61034976       0.26423989      -0.72604969
H        0.51042980       0.62282975       1.01152958
H        2.84335894      -0.82971967      -0.31712986
H        2.78504897      -0.30568989       1.36126947
H        2.80162890       1.55574938      -1.08879953
H        2.78745898       2.15958918       1.77622936
H        1.64940931       2.54528911       0.67994972
H        5.00032791       1.01445959       0.99776958
H        4.94951798       0.53903981      -2.03290917
H        5.06423786      -0.72350973      -0.78589970
H        6.38106738       0.43854983      -1.02009957
H        4.46672804       3.18203871       0.09983996
