16
Properties=species:S:1:pos:R:3 atomization_energy=-1596.37 smiles=C.C.C.O.C.C.N.H.H.H.H.H.H.H.H.H pbc="F F F"
C        0.99436961       0.01205000       0.07586997
C        2.47288896       0.04101998      -0.05223998
C        3.29599882      -0.99298961      -0.19663992
O        4.64207808      -0.70634975      -0.24661990
C        4.68118791       0.73682973      -0.30326987
C        3.27993869       1.28297954       0.04374998
N        2.80967877       2.33461900      -0.84991968
H        0.61222975      -1.01439960       0.06474998
H        0.52287979       0.55154976      -0.75154972
H        0.68267975       0.47533982       1.01719959
H        3.05726872      -2.04290918      -0.24884991
H        4.99613819       1.01788959      -1.31652950
H        5.43985766       1.10457957       0.39639985
H        3.26593860       1.65367938       1.07500963
H        2.82612900       1.98664928      -1.80834924
H        3.46280870       3.11549870      -0.82556965
