18
Properties=species:S:1:pos:R:3 atomization_energy=-1710.06 smiles=C.C.C.O.C.N.C.H.H.H.H.H.H.H.H.H.H.H pbc="F F F"
C        0.98239964      -0.09197996       0.03480999
C        2.49611908       0.00455000       0.04559999
C        3.16136874       1.09017953       0.94874963
O        2.40682914       1.56701937       2.08865924
C        4.20025841      -0.02659999       1.24057956
N        3.12444889      -1.01336958       0.94214965
C        3.65774848      -2.12666928       0.16363994
H        0.65494975      -0.96648959      -0.53795977
H        0.54767976       0.79511970      -0.43813982
H        0.56166976      -0.17482994       1.04275961
H        2.89136874       0.03294999      -0.98081961
H        3.56708864       1.94434922       0.39525985
H        2.12811918       0.74325969       2.53200891
H        5.05745822      -0.01822999       0.55536981
H        4.57220806      -0.06480997       2.26887914
H        2.83653893      -2.75452900      -0.19923992
H        4.29087839      -2.75567887       0.79927969
H        4.25339811      -1.81512925      -0.70320974
