16
Properties=species:S:1:pos:R:3 atomization_energy=-1590.46 smiles=C.C.C.O.C.C.N.H.H.H.H.H.H.H.H.H pbc="F F F"
C        0.11842996       0.17733994      -1.09223956
C        1.33283944      -0.18429993      -0.25610990
C        2.21717924       1.02687959       0.01338000
O        3.33411876       0.59705978       0.79326967
C        4.20888839       1.67557934       1.15507951
C        5.03826793       2.14099917       0.03174999
N        5.68406789       2.53332911      -0.85231966
H       -0.49988979      -0.70876974      -1.26648956
H        0.41812983       0.57899974      -2.06548917
H       -0.49752980       0.92723965      -0.58575976
H        1.91691930      -0.96076962      -0.76454970
H        1.01164963      -0.62354978       0.69601975
H        1.65486938       1.78837924       0.56583978
H        2.56509888       1.45501936      -0.93306964
H        4.86328831       1.29529948       1.94656923
H        3.62689846       2.49714910       1.58760935
