18
Properties=species:S:1:pos:R:3 atomization_energy=-1702.37 smiles=C.C.N.O.C.C.C.H.H.H.H.H.H.H.H.H.H.H pbc="F F F"
C        1.08007959       1.02199962      -0.66062973
C        2.48783908       0.88975963      -0.17408992
N        3.31793877       1.87538924      -0.27165989
O        4.55481840       1.47210938       0.25522990
C        5.47188809       2.57065900       0.19379993
C        5.33484799       3.40844873       1.45859944
C        6.87501742       1.99168922       0.07152997
H        0.88554967       0.23738990      -1.39626946
H        0.91209965       2.00138921      -1.11471951
H        0.39986985       0.88613962       0.18387992
H        2.77655903      -0.07776997       0.27257989
H        5.26699813       3.18591881      -0.69151974
H        5.50840799       2.79978890       2.35298897
H        4.32074835       3.81261856       1.54611940
H        6.04165762       4.24383829       1.45975941
H        7.10652732       1.33676950       0.91883967
H        7.62919720       2.78298893       0.02219999
H        6.95498725       1.37687944      -0.83162970
