13
Properties=species:S:1:pos:R:3 atomization_energy=-1320.98 smiles=C.C.N.N.C.C.O.H.H.H.H.H.H pbc="F F F"
C        1.02937962       0.01019000       0.00096000
C        2.52522902       0.04722998      -0.00639000
N        3.16203868       1.17335952      -0.03748998
N        4.55747797       1.20599958      -0.04539998
C        5.17569813       0.07402997      -0.01159000
C        4.47722805      -1.24756951       0.03652998
O        3.06636880      -1.19139956       0.02753999
H        0.66238974      -1.01991960      -0.01557999
H        0.64866973       0.53344979      -0.88009963
H        0.65980971       0.50250981       0.90490966
H        6.27628733       0.06290997      -0.01577999
H        4.80977794      -1.83926928      -0.82214968
H        4.80152822      -1.77133931       0.94106961
