18
Properties=species:S:1:pos:R:3 atomization_energy=-1708.82 smiles=C.C.C.C.C.N.O.H.H.H.H.H.H.H.H.H.H.H pbc="F F F"
C        1.47308944       0.17992993       1.40781942
C        1.84665930       0.59274978      -0.00358000
C        3.03809886       1.53132939       0.01689000
C        2.75734880       3.01909883       0.13418995
C        2.64335891       3.64679857      -1.24323951
N        4.22410826       1.00511961      -0.07433998
O        5.22628802       1.97912918      -0.05656998
H        0.61544975      -0.49968979       1.39209943
H        1.21004950       1.04987958       2.01856918
H        2.30664909      -0.33149987       1.90092920
H        1.00230959       1.09103960      -0.49035981
H        2.09816922      -0.29251990      -0.59770979
H        3.54267862       3.51122855       0.71636970
H        1.81991925       3.16023880       0.68315975
H        3.57300858       3.52961871      -1.80942934
H        2.42642897       4.71591828      -1.15835956
H        1.84104922       3.17982879      -1.82357932
H        6.03876741       1.44350940      -0.12386995
