15
Properties=species:S:1:pos:R:3 atomization_energy=-1440.53 smiles=C.C.C.C.N.N.O.H.H.H.H.H.H.H.H pbc="F F F"
C        0.65655975       0.14795994      -0.18884993
C        2.05076917       0.14586994       0.35229985
C        3.02978884       0.92418966      -0.13210995
C        4.42042828       0.92613961       0.41434985
N        5.28698782       1.79283932      -0.03792998
N        4.84368823       0.04130998       1.38684943
O        6.24275755      -0.05094998       1.45851945
H        0.41048984      -0.84062966      -0.58853976
H        0.52256980       0.88393967      -0.98812958
H       -0.05246998       0.38235986       0.61119974
H        2.22329903      -0.52429978       1.18923949
H        2.83682886       1.60528932      -0.95429966
H        4.85943824       2.39707906      -0.74648973
H        4.38061848      -0.86115965       1.42533941
H        6.52320760       0.79279970       1.03060961
