15
Properties=species:S:1:pos:R:3 atomization_energy=-1477.5 smiles=C.N.C.C.C.N.O.H.H.H.H.H.H.H.H pbc="F F F"
C        1.09475959       0.17912993      -0.23936990
N        2.53210909       0.30314989      -0.01177000
C        3.32274871      -0.64948974      -0.78447971
C        3.25715873       0.80250966      -1.19716950
C        4.42178835       1.68852936      -0.93594962
N        4.43714826       2.29842915       0.28260990
O        5.29695793       1.84922930      -1.77401932
H        0.60670975       1.13526961      -0.02384999
H        0.67905975      -0.56740979       0.44527982
H        0.82124967      -0.11422996      -1.26033950
H        2.81079887      -1.38163942      -1.39685941
H        4.23122829      -1.00692958      -0.31351988
H        2.68685905       1.05071959      -2.08472918
H        3.76922843       1.99258916       0.98060961
H        5.25686805       2.81896885       0.55592979
