13
Properties=species:S:1:pos:R:3 atomization_energy=-1344.42 smiles=C.N.C.C.O.C.N.H.H.H.H.H.H pbc="F F F"
C        1.02999960       0.01044000      -0.00704000
N        2.47188897       0.03753999       0.00092000
C        3.27419866       1.14555955       0.00505000
C        4.55277804       0.65583972       0.01196999
O        5.66935799       1.39553946       0.01785999
C        4.43508822      -0.74005969       0.01147000
N        3.15394868      -1.12627956       0.00451000
H        0.64675977       1.03473958       0.00046000
H        0.68976976      -0.52108978       0.88491966
H        0.69974971      -0.50451979      -0.91231962
H        2.86779898       2.14559917       0.00268000
H        5.44498806       2.34148897       0.01642999
H        5.21767798      -1.48651939       0.01576999
