14
Properties=species:S:1:pos:R:3 atomization_energy=-1488.23 smiles=C.C.N.C.C.C.O.H.H.H.H.H.H.H pbc="F F F"
C        1.01504960      -0.02533999      -0.00568000
C        2.48498900       0.10056996      -0.00117000
N        3.22505866       1.19052953       0.00404000
C        4.51619809       0.71426974       0.00642000
C        5.66791768       1.63698932       0.01202000
C        4.49571838      -0.66074971       0.00219000
O        3.19674886      -1.06742960      -0.00264000
H        0.54298980       0.96146965       0.00285000
H        0.67496971      -0.57552975       0.87648966
H        0.67906971      -0.55828978      -0.89991962
H        6.61622750       1.09061960       0.02667999
H        5.63328774       2.28365919       0.89427964
H        5.65259764       2.27006914      -0.88056966
H        5.24500797      -1.43807949       0.00199000
