16
Properties=species:S:1:pos:R:3 atomization_energy=-1565.33 smiles=C.C.O.C.C.C.N.H.H.H.H.H.H.H.H.H pbc="F F F"
C        2.29987905       2.13967923       0.57219979
C        3.26688862       2.49418900       1.42745949
O        4.56954798       2.81206885       1.17173955
C        4.98658796       2.81768877      -0.19659992
C        6.42973754       3.22155883      -0.24137991
C        7.51481695       2.18297902      -0.35240987
N        7.19270702       3.05214892      -1.48201944
H        1.30503947       1.91572931       0.94406964
H        2.45404915       2.05601918      -0.49612981
H        3.08529869       2.56451902       2.49501892
H        4.39765842       3.55129850      -0.75898971
H        4.84737832       1.82177932      -0.63396973
H        6.62492737       4.12712827       0.32074987
H        7.23610698       1.14164956      -0.46328981
H        8.45856664       2.36207895       0.14837994
H        7.88955713       3.79417844      -1.57836936
