14
Properties=species:S:1:pos:R:3 atomization_energy=-1382.97 smiles=C.C.C.O.O.N.C.H.H.H.H.H.H.H pbc="F F F"
C       -0.13758994      -0.91004965      -0.00858000
C        1.28721946      -1.32295953      -0.33261988
C        2.26559909      -0.18290993      -0.15642994
O        1.96838920       0.93833964       0.23676991
O        3.51877855      -0.63419973      -0.50939981
N        4.46699804       0.39338985      -0.36171985
C        5.62593784      -0.05161998      -0.70620971
H       -0.82074968      -1.75250934      -0.15363994
H       -0.46536981      -0.08818996      -0.65385974
H       -0.22344991      -0.57466980       1.03032959
H        1.33656952      -1.66427932      -1.37180948
H        1.58789940      -2.14198907       0.32928986
H        6.50405767       0.61115974      -0.65873977
H        5.79623771      -1.08382962      -1.05543957
