17
Properties=species:S:1:pos:R:3 atomization_energy=-1565.05 smiles=C.C.N.C.O.N.C.H.H.H.H.H.H.H.H.H.H pbc="F F F"
C        0.80229966      -0.65124975       0.03436999
C        2.31563915      -0.43281983       0.04926998
N        2.94451879      -1.27169945      -0.98311960
C        2.67498889       1.05366960      -0.13889995
O        2.12457922       1.54476943      -1.36657940
N        2.41535895       2.91446891      -1.46835936
C        1.97711923       3.34506867      -2.60191905
H        0.31742988      -0.03912999       0.80251969
H        0.55697981      -1.69854931       0.24374990
H        0.35991985      -0.39153986      -0.93363965
H        2.70496887      -0.75697970       1.02089959
H        2.70116901      -0.89482965      -1.90086927
H        2.55695892      -2.21312907      -0.94853963
H        3.76393856       1.18375948      -0.15472994
H        2.26716909       1.63895939       0.69477974
H        2.10969912       4.40233815      -2.87752888
H        1.46366941       2.69746882      -3.33194871
