14
Properties=species:S:1:pos:R:3 atomization_energy=-1478.89 smiles=C.C.O.C.C.C.N.H.H.H.H.H.H.H pbc="F F F"
C        1.32553949      -0.59832977      -0.09043996
C        2.81320888      -0.43902983       0.08145997
O        3.53329870      -1.40119951       0.34374986
C        3.36548858       0.95949964      -0.08645997
C        4.87644789       0.98966962       0.11092996
C        5.38937779       2.35348909      -0.05586998
N        5.77617788       3.43935855      -0.19155993
H        0.80379971       0.01438999       0.64876972
H        1.04692958      -1.64525935       0.05837998
H        1.03935958      -0.29659987      -1.10093957
H        2.87231900       1.61107931       0.64435972
H        3.10506884       1.31076953      -1.09176960
H        5.36518780       0.32278987      -0.60929974
H        5.13459791       0.61984978       1.11038963
