17
Properties=species:S:1:pos:R:3 atomization_energy=-1579.2 smiles=C.C.O.C.N.N.C.H.H.H.H.H.H.H.H.H.H pbc="F F F"
C        4.34118819      -1.75057926       1.39317941
C        4.86425827      -0.41445983       0.90257963
O        3.76768845       0.51129980       0.87165966
C        4.06655842       1.76503935       0.45788983
N        5.24428782       2.13542921       0.08109997
N        5.31594787       3.43344870      -0.30397987
C        6.64268746       3.89169841      -0.69979974
H        5.14585794      -2.49087892       1.43956937
H        3.55503856      -2.12477907       0.72896973
H        3.89627848      -1.64938938       2.38850913
H        5.28034797      -0.52967977      -0.10424996
H        5.63779791      -0.04864998       1.58631943
H        3.16813879       2.40418900       0.48827981
H        4.65740821       3.64310847      -1.05844963
H        7.35908719       3.75962849       0.11743995
H        6.60872720       4.95636827      -0.94906965
H        7.00059714       3.34251861      -1.57656935
