19
Properties=species:S:1:pos:R:3 atomization_energy=-1761.46 smiles=C.N.C.C.C.C.H.H.H.H.H.H.H.H.H.H.H.H.H pbc="F F F"
C        0.97851961      -0.08057997       0.00163000
N        2.42461900       0.07911997      -0.03306999
C        2.92096896       1.46711941      -0.02960999
C        2.50707909       2.22365911      -1.30337951
C        2.45596914       2.24214919       1.21393956
C        4.45801807       1.37346944       0.00425000
H        0.73994968      -1.14956960      -0.00613000
H        0.48979979       0.36551987      -0.86917968
H        0.54056976       0.33046986       0.91561967
H        2.79008878      -0.40832985      -0.85117969
H        2.80066878       1.67569933      -2.20631916
H        2.98691877       3.20850876      -1.34671942
H        1.42538950       2.39056917      -1.34729953
H        2.69672899       1.69849935       2.13506913
H        1.37631952       2.42743906       1.20266956
H        2.94795882       3.22042864       1.27246956
H        4.80709818       0.84206965       0.89832962
H        4.91576817       2.36998903       0.01495999
H        4.84905834       0.84331963      -0.87302968
