16
Properties=species:S:1:pos:R:3 atomization_energy=-1601.32 smiles=C.C.N.C.C.C.O.H.H.H.H.H.H.H.H.H pbc="F F F"
C        1.25128951      -0.19204992      -0.69797974
C        2.59541900      -0.09350997       0.00181000
N        3.16269878       1.22647954      -0.20987991
C        4.49850815       1.53145934      -0.13138995
C        5.02696803       2.75829883      -0.11562995
C        6.48928721       2.93354894      -0.05278998
O        6.99962718       4.04694850      -0.04038998
H        0.82095968      -1.18868953      -0.56083978
H        1.35526941      -0.00788000      -1.77265925
H        0.54511980       0.54411980      -0.29970989
H        3.26467871      -0.86621964      -0.39345984
H        2.47171890      -0.27174988       1.07542964
H        2.52388889       2.00990918      -0.08389997
H        5.13486790       0.64769977      -0.09641996
H        4.43118819       3.66096848      -0.15926994
H        7.09336723       2.01154920      -0.01888999
