20
Properties=species:S:1:pos:R:3 atomization_energy=-1866.72 smiles=C.C.C.C.N.C.O.H.H.H.H.H.H.H.H.H.H.H.H.H pbc="F F F"
C        0.93798965      -0.24077991       0.15825994
C        2.44382898      -0.03132999      -0.04878998
C        2.98179872      -1.16204953      -0.93384966
C        2.76107901       1.36414945      -0.64362972
N        2.26783903       2.46787892       0.21305992
C        4.27181830       1.59654932      -0.86776965
O        4.48980828       2.95825873      -1.24116951
H        0.53463978       0.45485983       0.89983963
H        0.73298969      -1.25216951       0.52435981
H        0.38759986      -0.10242996      -0.77804968
H        2.93067893      -0.11869995       0.93232961
H        2.58875897      -1.08756954      -1.95347920
H        2.69675902      -2.14053917      -0.53249976
H        4.07476828      -1.14480950      -0.98471964
H        2.25688911       1.47591946      -1.61205936
H        2.57485905       2.30941918       1.17433958
H        1.24868948       2.44289914       0.24121990
H        4.66209804       0.96706963      -1.67142938
H        4.84422822       1.40198943       0.04483998
H        3.78318840       3.44807862      -0.76801970
