9
Properties=species:S:1:pos:R:3 atomization_energy=-1033.83 smiles=C.C.C.N.C.N.O.H.H pbc="F F F"
C        0.99650963      -0.02709999       0.00193000
C        2.19560921       0.02879999      -0.00082000
C        3.60919868       0.09833996      -0.00408000
N        4.36649853       1.16848953      -0.00815000
C        5.61525766       0.61361978      -0.00969999
N        5.65818779      -0.72288969      -0.00680999
O        4.30016822      -1.07502956      -0.00300000
H       -0.06804997      -0.07283998       0.00435000
H        6.52495727       1.19822954      -0.01294000
