16
Properties=species:S:1:pos:R:3 atomization_energy=-1589.11 smiles=C.C.O.C.C.C.N.H.H.H.H.H.H.H.H.H pbc="F F F"
C        0.97134961      -0.11571996      -0.10898996
C        2.45938899      -0.25133989       0.08881996
O        2.97700871      -1.35569951       0.25160990
C        3.26042869       1.03600956       0.04483998
C        4.73234807       0.82241967       0.22843990
C        5.66227757       0.78715972      -0.95654963
N        5.64023795       1.93572921      -0.05351998
H        0.58630978       0.69102971       0.52053979
H        0.47494981      -1.04591956       0.18179992
H        0.76109971       0.09517997      -1.16018959
H        2.89334879       1.68081938       0.85101965
H        3.05105885       1.52842934      -0.91193967
H        4.97066788       0.22067991       1.09849953
H        5.26194798       0.95809964      -1.94794923
H        6.53360718       0.14564994      -0.91030961
H        6.44539722       1.91400929       0.57651977
