13
Properties=species:S:1:pos:R:3 atomization_energy=-1311.5 smiles=C.C.C.N.O.N.C.H.H.H.H.H.H pbc="F F F"
C        0.95275961      -0.08187997       0.00577000
C        2.46694908       0.05887997       0.00619000
C        2.90334893       1.47639940      -0.00326000
N        3.09076872       2.14099917      -1.14728954
O        3.48965852       3.41856873      -0.75983969
N        3.54489862       3.52732855       0.62941976
C        3.18235866       2.32605917       1.07350952
H        0.66939975      -1.13906960       0.01648000
H        0.51181979       0.37958986      -0.88480965
H        0.51041980       0.39794986       0.88572965
H        2.87893891      -0.46382983      -0.86615965
H        2.87453875      -0.44310984       0.89112966
H        3.14067884       2.13740926       2.13519908
