16
Properties=species:S:1:pos:R:3 atomization_energy=-1611.43 smiles=C.C.O.C.C.C.N.H.H.H.H.H.H.H.H.H pbc="F F F"
C        3.15489872      -1.21185947       0.28744990
C        2.45090914       0.10339996       0.06492998
O        1.23614951       0.13166995      -0.14097995
C        3.23621877       1.38874948       0.08613997
C        2.39712903       2.62803887      -0.04010999
C        4.57346820       1.38108946       0.21622991
N        5.44049808       2.44597910       0.25541990
H        3.67234862      -1.20789950       1.25029948
H        3.85133853      -1.41031939      -0.53112979
H        2.41396911      -2.01735926       0.30881987
H        1.63192932       2.65289905       0.74342970
H        1.89815923       2.65248901      -1.01470959
H        2.97903872       3.54902853       0.05426998
H        5.12587784       0.44909984       0.31636987
H        5.07212775       3.31922869      -0.11320996
H        6.37594758       2.24173915      -0.09111996
