16
Properties=species:S:1:pos:R:3 atomization_energy=-1478.64 smiles=C.C.C.N.N.C.H.H.H.H.H.H.H.H.H.H pbc="F F F"
C        0.98536958      -0.22514991       0.12073996
C        2.50121895      -0.13815994       0.21365991
C        2.97793880       1.31327947       0.16227994
N        4.43985829       1.37213940       0.24629991
N        4.96981803       2.61768900       0.19569992
C        6.25734735       2.63443900       0.29470988
H        0.66132975      -1.26875954       0.17599993
H        0.62730976       0.19200992      -0.82553968
H        0.50991980       0.32273988       0.93994964
H        2.94207874      -0.71043973      -0.61214976
H        2.83171890      -0.60973975       1.14746958
H        2.54051904       1.87541926       0.99559959
H        2.64265895       1.78043925      -0.77150970
H        4.84089795       0.75662972      -0.46565983
H        6.79071708       3.59718847       0.26248989
H        6.87563715       1.72758936       0.41793982
