17
Properties=species:S:1:pos:R:3 atomization_energy=-1597.39 smiles=C.C.N.C.N.C.O.H.H.H.H.H.H.H.H.H.H pbc="F F F"
C        0.22155992       0.14007995       1.79624932
C        0.81227967       1.15466960       0.82305964
N        2.02655925       1.79010935       1.36373942
C        2.70005901       2.57324893       0.32190987
N        1.72833928       2.61215891       2.46356911
C        2.30038900       2.37639900       3.68719856
O        2.08092919       3.06315889       4.67759825
H       -0.63149972      -0.36839985       1.33461950
H       -0.13469995       0.61807974       2.71480903
H        0.95989964      -0.62245977       2.06795924
H        0.05494998       1.90509922       0.56468979
H        1.06329957       0.61491973      -0.09819996
H        2.99847882       1.92946925      -0.51285981
H        3.61739869       3.02530870       0.71649972
H        2.06170925       3.37556871      -0.06652997
H        1.09250956       3.39996863       2.38501914
H        2.97789894       1.50662944       3.69741849
