17
Properties=species:S:1:pos:R:3 atomization_energy=-1577.79 smiles=C.C.C.O.N.N.C.H.H.H.H.H.H.H.H.H.H pbc="F F F"
C        0.94306965      -0.06822997      -0.12680995
C        2.46785899      -0.06766997      -0.20595992
C        2.93825895      -0.85484966      -1.44405948
O        4.36213825      -0.93593965      -1.47616939
N        2.95129893       1.33066952      -0.24962991
N        4.29521849       1.51468940      -0.20746991
C        4.64688802       2.75922892      -0.22340991
H        0.59426976       0.46161981       0.76654968
H        0.55948980      -1.09285954      -0.07380997
H        0.49522980       0.41406985      -1.00307958
H        2.87255896      -0.53965978       0.69803972
H        2.60165890      -0.37907987      -2.37182903
H        2.54831910      -1.87759928      -1.42511950
H        4.65102827      -0.05683998      -1.13924951
H        2.47505901       1.86379928       0.48375980
H        5.71621792       3.02056891      -0.19031992
H        3.93113855       3.59797852      -0.27645990
