16
Properties=species:S:1:pos:R:3 atomization_energy=-1643.51 smiles=C.C.C.C.C.C.N.H.H.H.H.H.H.H.H.H pbc="F F F"
C        0.81913968      -1.25147951       0.71717974
C       -0.26006989      -1.25828955      -0.35065986
C       -1.49383940      -0.50280980      -0.11923996
C       -1.52895937       0.79983968       0.19896992
C       -0.24559991       1.56330935       0.31011988
C        0.90654962       0.91381966      -0.48714981
N        1.00800962      -0.55332977      -0.54329979
H        1.40223949      -2.15634924       0.84647965
H        0.68341972      -0.67556975       1.62338941
H       -0.37398984      -2.16294922      -0.93750966
H       -2.42951902      -1.05077958      -0.20017992
H       -2.46946911       1.30709950       0.38911984
H        0.02487999       1.64069934       1.36892949
H       -0.39706985       2.58316907      -0.05892998
H        1.85893926       1.31984942      -0.12348996
H        0.82023965       1.25534952      -1.52790942
