13
Properties=species:S:1:pos:R:3 atomization_energy=-1356.95 smiles=C.C.N.C.O.C.N.H.H.H.H.H.H pbc="F F F"
C        1.03819961      -0.04699998       0.36960984
C        2.51999896       0.00000000       0.00000000
N        2.73797884      -0.62203976      -1.30384948
C        2.84532888      -1.97830923      -1.44270938
O        2.79507888      -2.78421880      -0.52637978
C        3.00201878       1.36116943       0.00000000
N        3.38622869       2.44615901       0.00000000
H        0.86225968       0.40482983       1.35235953
H        0.67198974      -1.07887963       0.40333984
H        0.42668982       0.49472981      -0.36189986
H        3.07586882      -0.58253976       0.74460973
H        2.74234897      -0.04154998      -2.13445925
H        2.98702879      -2.27818916      -2.49456901
