13
Properties=species:S:1:pos:R:3 atomization_energy=-1330.99 smiles=C.C.C.N.N.C.O.H.H.H.H.H.H pbc="F F F"
C        1.26664954      -0.78721971       0.24122991
C        2.47252914      -0.32941987      -0.11117996
C        2.78575903       1.10771958       0.01023000
N        3.94448838       1.57324943      -0.32869988
N        4.09122835       2.91433896      -0.16211993
C        5.26971776       3.53069868      -0.48739981
O        5.46225762       4.73344823      -0.35847986
H        1.03595960      -1.84501928       0.15208994
H        0.48343981      -0.13971995       0.62218977
H        3.25285876      -0.97828961      -0.49182980
H        1.97941923       1.75330935       0.40336984
H        3.34242878       3.49113869       0.20476992
H        6.03223759       2.83685888      -0.87868967
