14
Properties=species:S:1:pos:R:3 atomization_energy=-1492.43 smiles=C.C.C.N.C.O.C.H.H.H.H.H.H.H pbc="F F F"
C        1.01005962       0.01429000       0.08625997
C        2.49008912      -0.00449000      -0.02102999
C        3.28958860      -1.07035954      -0.12517995
N        4.58330811      -0.66772976      -0.20193992
C        4.70104840       0.71025975      -0.15148994
O        5.74311795       1.34261942      -0.20091991
C        3.29435867       1.27497950      -0.02436999
H        0.59287979      -0.99747959       0.06397998
H        0.57477975       0.57706979      -0.74520971
H        0.70182974       0.48624981       1.02431962
H        3.02096885      -2.11717910      -0.15101994
H        5.38740809      -1.27319956      -0.28692988
H        3.05938881       1.90010924      -0.88860963
H        3.19133863       1.82149923       0.91630967
