18
Properties=species:S:1:pos:R:3 atomization_energy=-1719.54 smiles=C.C.N.C.C.O.C.H.H.H.H.H.H.H.H.H.H.H pbc="F F F"
C        0.89483962      -0.02281999       0.14102994
C        2.39828899       0.01843999      -0.00644000
N        2.82639900       0.05568998      -1.41312947
C        3.18756880       1.08726952       0.77996967
C        4.19619840       0.00134000       1.21665956
O        5.48918792       0.03820999       0.57783978
C        3.20856882      -1.07780962       0.72019971
H        0.60196977      -0.06179997       1.19635951
H        0.47003982      -0.90502964      -0.35096985
H        0.42707983       0.86686965      -0.29568987
H        3.76981863       0.41012982      -1.57133941
H        2.23053917       0.64168974      -2.00160924
H        2.63725906       1.51556941       1.62685935
H        3.60666856       1.91907926       0.20387992
H        4.33929823      -0.02024999       2.30296909
H        5.36992809      -0.42110983      -0.27091990
H        3.63804847      -1.86956922       0.09664996
H        2.66978885      -1.56293943       1.54375935
