18
Properties=species:S:1:pos:R:3 atomization_energy=-1759.89 smiles=C.C.C.C.C.N.O.H.H.H.H.H.H.H.H.H.H.H pbc="F F F"
C        2.65270904      -1.43325945       0.08201997
C        2.44123905      -0.16757994       0.90402966
C        3.11632887       1.06032963       0.27505990
C        2.66435893       2.33679914       0.98654961
C        4.63685835       0.97411964       0.33945985
N        5.29434782       1.81344923      -0.51311981
O        5.26317784       0.25313990       1.10649956
H        2.12490927      -2.27395907       0.54341977
H        3.71170851      -1.69939929       0.01540999
H        2.26584914      -1.30845944      -0.93448963
H        2.81179886      -0.33405987       1.92270929
H        1.36156949       0.00938000       0.98318963
H        2.82131881       1.12590951      -0.78005969
H        2.94548875       2.31886899       2.04568924
H        1.57742942       2.45446903       0.92416966
H        3.12234874       3.22621863       0.54058982
H        4.82534829       2.33598916      -1.23850956
H        6.30503745       1.76324931      -0.52494979
