14
Properties=species:S:1:pos:R:3 atomization_energy=-1407.66 smiles=C.C.C.C.C.N.O.H.H.H.H.H.H.H pbc="F F F"
C        1.06061955      -0.00013000      -0.06229998
C        2.56587908       0.11868995      -0.00146000
C        3.35999861      -1.17653953       0.00226000
C        3.49006856      -1.72391932      -1.35650950
C        3.59986848      -2.17448908      -2.46483909
N        3.07456881       1.31668948       0.01642999
O        4.47113828       1.28710944       0.04811998
H        0.59248975       0.98684963      -0.01028999
H        0.70987974      -0.60411976       0.77881967
H        0.76919973      -0.48295982      -0.99872964
H        2.83244889      -1.89411928       0.64076974
H        4.34609806      -1.02941962       0.45210983
H        3.70238865      -2.56927900      -3.44902864
H        4.70156820       2.23450910       0.01308000
