13
Properties=species:S:1:pos:R:3 atomization_energy=-1316.78 smiles=C.C.C.C.N.N.O.H.H.H.H.H.H pbc="F F F"
C        1.05234959      -0.02901999      -0.01075000
C        2.55843910       0.08483996       0.01162000
C        3.35143877      -1.20295949      -0.02774999
C        3.51894863      -1.64654939      -1.41278946
N        3.63247851      -2.02725922      -2.50246900
N        3.07456881       1.27858948       0.03374999
O        4.47107823       1.23642947       0.01657999
H        0.58872976       0.95933959       0.05246998
H        0.72160974      -0.63180977       0.83931968
H        0.73630974      -0.51194981      -0.93916962
H        2.80492889      -1.96097924       0.54433977
H        4.32087805      -1.08173955       0.46353981
H        4.71036800       2.18318921      -0.01513000
