14
Properties=species:S:1:pos:R:3 atomization_energy=-1455.55 smiles=C.C.C.C.O.N.C.H.H.H.H.H.H.H pbc="F F F"
C        0.94084964      -0.13196995       0.00668000
C        2.45514907       0.01235000       0.00757999
C        2.88979874       1.43197938      -0.00029000
C        3.15452879       2.25166914       1.07197964
O        3.52547871       3.48001871       0.63466976
N        3.51377861       3.49573869      -0.74935968
C        3.13340867       2.26847920      -1.11172951
H        0.66062973      -1.18979953       0.01144999
H        0.49993982       0.33312987      -0.88118964
H        0.49804979       0.34171986       0.88893968
H        2.86746894      -0.50232981      -0.86906966
H        2.86580885      -0.49476981       0.88969964
H        3.12943874       2.12746917       2.14474907
H        3.05106869       2.03977914      -2.16483918
