16
Properties=species:S:1:pos:R:3 atomization_energy=-1525.43 smiles=C.C.N.O.C.C.O.H.H.H.H.H.H.H.H.H pbc="F F F"
C        2.74878897      -0.53976980       1.55233937
C        2.70654897      -0.23178991       0.06384998
N        3.03468886       1.15862956      -0.22331991
O        1.97005926       2.03284924       0.11724995
C        4.27468831       1.75483937      -0.24870991
C        5.45935782       0.85556969      -0.47552980
O        4.40172852       2.97258888      -0.09728996
H        2.51166900      -1.59356941       1.72812934
H        2.02177921       0.06874997       2.09999913
H        3.73833854      -0.33573986       1.97275920
H        1.70715936      -0.43347983      -0.33671988
H        3.41700856      -0.87962966      -0.45771982
H        2.43404912       2.89410881       0.20628992
H        5.26433806       0.16028993      -1.29541947
H        5.68872795       0.30745986       0.44094982
H        6.32545761       1.46470939      -0.75118971
