16
Properties=species:S:1:pos:R:3 atomization_energy=-1497.07 smiles=C.C.C.O.O.N.C.H.H.H.H.H.H.H.H.H pbc="F F F"
C        2.51337904      -3.03841882       0.32864988
C        2.68835891      -1.90376931      -0.67032972
C        2.92416878      -2.45026898      -2.08386923
O        3.26938872      -1.39532940      -2.98353879
O        1.47617936      -1.12780957      -0.64999977
N        1.70391930       0.12158996      -1.25261954
C        0.62596975       0.82542967      -1.15514953
H        2.32815907      -2.63824895       1.33142954
H        3.40177860      -3.67610861       0.36717986
H        1.64634929      -3.65763846       0.07252997
H        3.52361852      -1.26476955      -0.35719987
H        2.02054923      -2.92915888      -2.47479911
H        3.74401852      -3.17436885      -2.09723913
H        2.73123882      -0.62729973      -2.69156882
H        0.59687975       1.84468923      -1.56962936
H       -0.29192988       0.45422982      -0.66909973
