18
Properties=species:S:1:pos:R:3 atomization_energy=-1630.9 smiles=C.N.C.C.C.N.H.H.H.H.H.H.H.H.H.H.H.H pbc="F F F"
C        1.00222960      -0.02809999       0.01962999
N        2.45822902      -0.00428000       0.03172999
C        2.96324884       1.36844943      -0.00821000
C        4.49401817       1.36281942      -0.01126999
C        5.04101783       2.78993890      -0.01044000
N        6.49972767       2.78112900      -0.03456999
H        0.65358975      -1.06494956       0.06071998
H        0.60000979       0.42672985      -0.89175967
H        0.59051974       0.49175981       0.89113963
H        2.81146881      -0.52089981      -0.77368971
H        2.60446886       1.92157923       0.86798969
H        2.59837910       1.88120925      -0.90647967
H        4.86112785       0.82557968      -0.89552962
H        4.86416794       0.82424970       0.87112963
H        4.69741836       3.32557860       0.88132968
H        4.67515820       3.33413869      -0.88764963
H        6.85279713       2.28567910       0.78388970
H        6.84606746       3.73674860       0.03939998
