16
Properties=species:S:1:pos:R:3 atomization_energy=-1480.12 smiles=C.C.C.N.N.C.H.H.H.H.H.H.H.H.H.H pbc="F F F"
C        0.91878965      -0.20849991      -0.15809993
C        2.44404901      -0.11205996      -0.19627992
C        2.99676877      -0.95393964      -1.34624946
N        2.83279887       1.29945955      -0.34658985
N        4.15860836       1.56551939      -0.24964991
C        4.45049810       2.79981893      -0.49672982
H        0.50888979       0.36306986       0.68204975
H        0.60034975      -1.24939954      -0.03586998
H        0.46822982       0.17508993      -1.08053960
H        2.83747886      -0.49550980       0.75306970
H        2.64040891      -0.59084979      -2.31681905
H        2.68386893      -1.99877922      -1.24366948
H        4.09188844      -0.93959965      -1.36037950
H        2.29792903       1.85878925       0.32283986
H        5.50034803       3.12891869      -0.44801982
H        3.70117847       3.56393853      -0.76627969
