12
Properties=species:S:1:pos:R:3 atomization_energy=-1249.22 smiles=C.N.C.C.C.N.H.H.H.H.H.H pbc="F F F"
C        1.01263959      -0.00531000      -0.00700000
N        2.45414908       0.03323999       0.00059000
C        3.24846870       1.14309958       0.00340000
C        4.54396815       0.68136971       0.01060999
C        4.42256805      -0.72019971       0.01151000
N        3.14842869      -1.11955960       0.00525000
H        0.62095978       1.01492962       0.00041000
H        0.67691973      -0.54007979       0.88514966
H        0.68635976      -0.52380979      -0.91212962
H        2.83820886       2.14296912       0.00009000
H        5.44884772       1.27157946       0.01459999
H        5.20702808      -1.46585939       0.01639999
