16
Properties=species:S:1:pos:R:3 atomization_energy=-1555.97 smiles=C.C.O.C.N.C.O.H.H.H.H.H.H.H.H.H pbc="F F F"
C        1.00751960      -1.29938952       1.43637941
C        1.79511926      -0.87652965       0.20387992
O        1.08454952      -1.36631950      -0.93330961
C        1.93974923       0.65656972       0.13995995
N        3.08207869       1.11799956      -0.64257977
C        3.25288878       0.82347965      -1.96831918
O        2.54993907       0.06831997      -2.62276893
H        1.52200940      -1.00802962       2.35702905
H        0.86509967      -2.38549908       1.44597948
H        0.00790000      -0.85084964       1.43551946
H        2.77846893      -1.35934949       0.22147991
H        1.53422943      -1.00011961      -1.72795927
H        2.09180921       1.06719960       1.14390956
H        1.04392961       1.11267953      -0.29641990
H        3.66916849       1.83945928      -0.24448991
H        4.12931825       1.34018947      -2.39726907
