12
Properties=species:S:1:pos:R:3 atomization_energy=-1324.75 smiles=C.C.C.C.O.C.N.H.H.H.H.H pbc="F F F"
C        0.88938965       0.22433992       0.16153993
C        2.21694912       0.21778992      -0.05537998
C        2.99779879      -1.05893953      -0.20444992
C        3.48514860      -1.26742950      -1.62369941
O        3.03005883      -0.70265972      -2.61283894
C        2.93104884       1.45443938      -0.11163996
N        3.53264870       2.44699902      -0.12439995
H        0.33638987       1.15372954       0.27604989
H        0.31515988      -0.69512972       0.21647992
H        2.40530910      -1.93838928       0.07167997
H        3.87473847      -1.03730957       0.45303983
H        4.26940853      -2.03649921      -1.73470926
