17
Properties=species:S:1:pos:R:3 atomization_energy=-1580.8 smiles=C.C.N.N.C.C.O.H.H.H.H.H.H.H.H.H.H pbc="F F F"
C        1.12433951      -0.15099994      -0.52589979
C        2.55343890      -0.13360995      -0.00715000
N        3.03329877       1.24495953       0.10823996
N        4.30898820       1.38364949       0.53878981
C        4.72124802       2.61304888       0.54314978
C        6.12203774       2.94236893       1.01340958
O        6.91022723       1.79193925       1.24883950
H        0.77008970      -1.18227956      -0.61830974
H        1.05636960       0.31936987      -1.51202945
H        0.44890983       0.37766984       0.15444994
H        3.19603880      -0.69458973      -0.69529973
H        2.59375891      -0.62701977       0.97102960
H        2.37523904       1.77867925       0.68148976
H        4.08758847       3.46289854       0.23231991
H        6.04831765       3.52313859       1.93746928
H        6.60828764       3.56029865       0.25378990
H        6.29657729       1.03183960       1.17901956
