11
Properties=species:S:1:pos:R:3 atomization_energy=-1196.17 smiles=C.C.C.N.C.N.O.H.H.H.H pbc="F F F"
C        2.89155875      -1.11006954       0.38613984
C        2.29766913       0.05485998       0.09874996
C        3.00664880       1.28703954       0.07313997
N        2.47834891       2.46811914      -0.20286991
C        3.53638850       3.32131875      -0.10252996
N        4.69674817       2.75329888       0.21888992
O        4.36040827       1.40653947       0.33818987
H        2.31642920      -2.03080914       0.39582984
H        3.95017846      -1.18655947       0.61728975
H        1.23686953       0.09015996      -0.12705995
H        3.46181856       4.38645844      -0.26777989
