14
Properties=species:S:1:pos:R:3 atomization_energy=-1461.79 smiles=C.C.C.C.C.N.O.H.H.H.H.H.H.H pbc="F F F"
C        0.93992964      -0.13229994      -0.00424000
C        2.39994908       0.07316997      -0.00469000
C        3.22011878       1.18105954      -0.00096000
C        2.83947884       2.60836889       0.00538000
C        4.51824803       0.62352978      -0.00475000
N        4.49930804      -0.71038970      -0.01041000
O        3.15903871      -1.05621959      -0.01046999
H        0.40486986       0.82197967       0.00800000
H        0.63422976      -0.70409971       0.87726967
H        0.63086977      -0.68339972      -0.89767968
H        3.72286862       3.25472878       0.01217999
H        2.24220924       2.84293880       0.89220964
H        2.24880922       2.85238886      -0.88330966
H        5.47380782       1.12884955      -0.00368000
