17
Properties=species:S:1:pos:R:3 atomization_energy=-1618.56 smiles=C.N.C.C.C.C.H.H.H.H.H.H.H.H.H.H.H pbc="F F F"
C        1.27654950      -0.30004987      -0.22372992
N        2.71066903      -0.22395992       0.01754999
C        3.17885883       1.15658959      -0.06106997
C        4.65367825       1.18765951       0.19769991
C        5.56565792       1.66706935      -0.66448976
C        7.03414710       1.69737938      -0.39256984
H        0.95085962      -1.34283945      -0.15864994
H        1.01616958       0.07165997      -1.22025958
H        0.71739972       0.26710989       0.52747979
H        3.19794870      -0.77048971      -0.69211972
H        2.68336906       1.76906933       0.70134974
H        2.94628889       1.58700943      -1.04252961
H        4.97426814       0.79669967       1.16109950
H        5.24657798       2.06103918      -1.62630939
H        7.28224727       1.29072951       0.59280977
H        7.39984726       2.72774883      -0.43862982
H        7.56470688       1.10985960      -1.14809952
