14
Properties=species:S:1:pos:R:3 atomization_energy=-1474.1 smiles=C.C.C.O.C.C.N.H.H.H.H.H.H.H pbc="F F F"
C        0.99698962      -0.58073976      -0.06436997
C        2.34240898       0.11791996       0.02650999
C        2.21479925       1.62683942      -0.11459995
O        1.16051952       2.21783909       0.12598995
C        3.43001876       2.38558916      -0.58731980
C        4.55181818       2.19763921       0.32760987
N        5.45070791       2.02757917       1.04061959
H        1.12512955      -1.66564935       0.00085000
H        0.50038979      -0.35022985      -1.01303959
H        0.33170988      -0.26649991       0.74648973
H        2.98890890      -0.25482990      -0.77486967
H        2.81546901      -0.10218996       0.98886960
H        3.17397874       3.44783865      -0.65978972
H        3.67878862       2.04078922      -1.59623933
