18
Properties=species:S:1:pos:R:3 atomization_energy=-1718.77 smiles=C.C.N.C.C.C.O.H.H.H.H.H.H.H.H.H.H.H pbc="F F F"
C        0.97106959       0.06669998       0.03411999
C        2.48367890      -0.05862998       0.00964000
N        3.15947878       0.96131964       0.84648967
C        4.15531847      -0.04168999       1.27334944
C        3.19649880      -1.18210949       0.83584969
C        2.42832903      -1.81161932       1.99100918
O        3.79496849      -2.24454911       0.05035998
H        0.51194981      -0.78835968      -0.47207980
H        0.65015974       0.97308963      -0.49002979
H        0.57064979       0.10967996       1.05164956
H        2.83492880      -0.02669999      -1.03219961
H        2.58615895       1.30775948       1.61725941
H        5.08973795       0.00896999       0.70102972
H        4.40869841      -0.00209000       2.33821901
H        1.98651920      -1.05758956       2.65133889
H        3.09175887      -2.43431912       2.60146889
H        1.61960937      -2.44932905       1.61848939
H        4.30425851      -1.79109924      -0.64375974
