16
Properties=species:S:1:pos:R:3 atomization_energy=-1602.52 smiles=C.C.C.O.C.C.N.H.H.H.H.H.H.H.H.H pbc="F F F"
C        1.17109951      -0.18835992       0.39820986
C        2.53938910      -0.01012000      -0.26796990
C        2.62694905      -0.84109969      -1.55523941
O        1.68677932      -0.38268984      -2.51633889
C        2.79500899       1.48597940      -0.52759980
C        4.18216828       1.74055931      -0.94084964
N        5.28553792       1.93328929      -1.24853947
H        1.14156957       0.32828987       1.36355951
H        0.96355965      -1.24776948       0.58204980
H        0.36337985       0.21443992      -0.22196991
H        3.30053876      -0.38915984       0.42712982
H        2.43865896      -1.90183923      -1.35475945
H        3.62391868      -0.76852973      -2.00092921
H        0.85119969      -0.85769968      -2.36362902
H        2.60219889       2.05237917       0.39214983
H        2.10284921       1.87579928      -1.28282953
