18
Properties=species:S:1:pos:R:3 atomization_energy=-1717.32 smiles=C.C.N.C.C.C.O.H.H.H.H.H.H.H.H.H.H.H pbc="F F F"
C        1.18867956      -0.10324996      -0.11955995
C        2.66638893       0.07822997      -0.15347994
N        3.43867877      -0.38894984      -1.29775946
C        3.36153858       1.07541954      -1.07236961
C        2.58043910       1.89156922      -2.06867914
C        4.63312839       1.73601937      -0.57940978
O        5.70468790       1.36143942      -1.43796947
H        0.72435971       0.71119975       0.44510981
H        0.93967964      -1.04466957       0.38102985
H        0.73614969      -0.13021994      -1.11566953
H        3.10825881      -0.10922996       0.82035970
H        2.82886881      -0.66906977      -2.06923919
H        1.77380925       1.32547944      -2.54513897
H        3.23926870       2.25213923      -2.86604882
H        2.13585919       2.76132882      -1.57410937
H        4.88786790       1.42254938       0.43825984
H        4.54626841       2.82714892      -0.58246974
H        5.56510783       0.40636984      -1.59474931
