15
Properties=species:S:1:pos:R:3 atomization_energy=-1487.8 smiles=C.C.N.C.N.C.O.H.H.H.H.H.H.H.H pbc="F F F"
C        2.23843916      -0.08418997       1.39660947
C        2.09584916       0.61698973       0.05376998
N        3.03870875       1.72496927      -0.08166997
C        2.79342889       2.98386884       0.40633984
N        1.73849928       3.35800872       1.03783960
C        4.26507853       1.45336937      -0.66650974
O        4.64713833       0.36118986      -1.07095959
H        1.52913940      -0.91424964       1.46854937
H        2.04518925       0.60319976       2.22621901
H        3.24913864      -0.48530981       1.52498944
H        1.07416962       0.99178958      -0.06532998
H        2.26316914      -0.10776995      -0.75119968
H        3.59554857       3.71816844       0.22548991
H        1.06797956       2.60024888       1.16112953
H        4.91948803       2.33849910      -0.73492974
