13
Properties=species:S:1:pos:R:3 atomization_energy=-1302.67 smiles=C.C.O.N.C.C.N.H.H.H.H.H.H pbc="F F F"
C        0.39182985      -1.00399957      -0.11865996
C        1.79872923      -0.50546982       0.14193995
O        1.83552922       0.90016962      -0.11067996
N        3.13879872       1.36215945       0.13194995
C        3.17128864       2.62902902      -0.09444996
C        4.46076848       3.22891883       0.11944995
N        5.48653793       3.75199849       0.28101990
H        0.31870987      -2.07965921       0.06429997
H        0.09603996      -0.80032971      -1.15311953
H       -0.32630986      -0.48602981       0.52559980
H        2.50700894      -1.01439960      -0.52118980
H        2.07852914      -0.69673972       1.18382950
H        2.32547906       3.25154865      -0.42239984
