19
Properties=species:S:1:pos:R:3 atomization_energy=-1754.9 smiles=C.C.C.N.C.C.H.H.H.H.H.H.H.H.H.H.H.H.H pbc="F F F"
C        0.93898964      -0.12996995      -0.04740998
C        2.44606892      -0.22413991       0.14313993
C        3.14136871       1.07697958      -0.27440989
N        4.59097797       1.06959952      -0.01103000
C        5.30126775       0.11365996      -0.86299965
C        5.14099804       2.41284901      -0.21601992
H        0.45971983      -1.06751955       0.25210990
H        0.68886975       0.05966998      -1.09585951
H        0.51515981       0.67675975       0.55928977
H        2.81319879      -1.07019956      -0.44759982
H        2.66121892      -0.44217984       1.19729958
H        2.68322902       1.89221923       0.30146987
H        2.93977875       1.28523954      -1.33355946
H        5.00992810      -0.91593963      -0.63376975
H        6.38154731       0.16545993      -0.68259971
H        5.12432803       0.29841988      -1.92878921
H        4.66323807       3.13294867       0.45774981
H        5.00676790       2.76134901      -1.24658946
H        6.21122775       2.43176906       0.01849999
