14
Properties=species:S:1:pos:R:3 atomization_energy=-1449.37 smiles=C.C.C.O.C.C.N.H.H.H.H.H.H.H pbc="F F F"
C        0.91277962       0.02112999       0.04744998
C        2.42629902      -0.02022999       0.00632000
C        3.16684887       0.96672962       0.91701967
O        4.01905832      -0.09250996       1.42159948
C        3.11479874      -1.09790957       0.86940968
C        3.83119846      -2.12988928       0.14573994
N        4.37341846      -2.96708881      -0.44988982
H        0.49050982      -0.83368967      -0.49052982
H        0.53999980       0.93426966      -0.42755983
H        0.53315980      -0.00475000       1.07417958
H        2.79334890       0.02032999      -1.02806958
H        2.58280900       1.41823944       1.72512938
H        3.74047856       1.73917931       0.39789983
H        2.48705913      -1.50408947       1.67269936
