21
Properties=species:S:1:pos:R:3 atomization_energy=-2047.3 smiles=C.C.C.C.C.C.C.H.H.H.H.H.H.H.H.H.H.H.H.H.H pbc="F F F"
C        3.10553868      -1.09048952      -0.59564976
C        2.44124914       0.12494995       0.05083998
C        1.89419927      -0.23764990       1.43134944
C        3.42310867       1.26413948       0.15955994
C        3.65424864       2.18289903      -1.01600960
C        2.92545895       2.68940886       0.20097992
C        3.57227859       3.68019864       1.10682961
H        3.47931874      -0.84326967      -1.59491939
H        2.39460899      -1.91704925      -0.69553976
H        3.95664848      -1.44167937      -0.00216000
H        1.59529940       0.42536985      -0.58113976
H        2.69661898      -0.55249979       2.10740922
H        1.16668952      -1.05282959       1.36151941
H        1.39501941       0.62271973       1.88971926
H        4.28618856       1.00735962       0.76611971
H        3.07769872       2.02561919      -1.92088923
H        4.66702809       2.52545890      -1.19692953
H        1.85957930       2.86781892       0.11036996
H        4.65111810       3.51511874       1.19612952
H        3.13409879       3.61601870       2.10778922
H        3.41338862       4.69536791       0.72928969
