14
Properties=species:S:1:pos:R:3 atomization_energy=-1455.07 smiles=C.C.C.C.O.C.N.H.H.H.H.H.H.H pbc="F F F"
C        0.90644964       0.06882997       0.22397992
C        2.39591909      -0.09315997       0.06693998
C        2.94172876      -1.31808954      -0.05016998
C        3.24194871       1.16566960       0.03338998
O        2.81174889       1.97025923      -1.07049959
C        3.17574885       1.90802929       1.31142951
N        3.09870883       2.51067910       2.30448914
H        0.66708972       0.57936979       1.16188955
H        0.38898986      -0.89666966       0.23715990
H        0.49203980       0.64960973      -0.60603975
H        2.33225920      -2.21769904      -0.03227999
H        4.01164837      -1.46114938      -0.17461993
H        4.28942849       0.91092965      -0.16543993
H        2.02772918       2.46650902      -0.77944967
