14
Properties=species:S:1:pos:R:3 atomization_energy=-1430.41 smiles=C.C.O.N.C.C.C.H.H.H.H.H.H.H pbc="F F F"
C        0.93935962       0.02015999       0.16261994
C        2.45162904       0.05451998      -0.03858998
O        2.69846882       1.18345959      -0.89619963
N        3.92700839       1.20525949      -1.59416933
C        4.36128840       0.04744998      -1.98307917
C        3.79860862      -1.26219955      -1.63457930
C        2.91477878      -1.24243949      -0.63686977
H        0.59406979       0.94942960       0.62627975
H        0.62726977      -0.82028968       0.79146967
H        0.42164982      -0.05600998      -0.80176970
H        2.94862876       0.22452992       0.92467962
H        5.26258789       0.01495999      -2.60906886
H        4.17989831      -2.15934920      -2.10011911
H        2.52317909      -2.16755906      -0.23463990
