18
Properties=species:S:1:pos:R:3 atomization_energy=-1764.72 smiles=C.C.C.C.C.C.N.H.H.H.H.H.H.H.H.H.H.H pbc="F F F"
C        1.09998954       0.07191998       0.08871996
C        0.62197977       0.60014977       1.41101948
C       -0.32338989      -0.21450991       2.25688911
C        1.09612963      -0.00735000       2.70600898
C        2.53488902       0.43334982      -0.16943994
C        3.60996855      -0.62350978      -0.11399996
N        3.17751870      -0.06061997      -1.38925944
H        0.96008965      -1.01457957       0.03365999
H        0.47560982       0.50857980      -0.69984970
H        0.47289981       1.67457935       1.38626944
H       -0.60646978      -1.20583948       1.92083927
H       -1.10797961       0.31070989       2.79003882
H        1.27121951       0.65944976       3.54295870
H        1.76989925      -0.85655965       2.66804902
H        2.77756886       1.45101941       0.10906996
H        3.32825861      -1.65277932       0.06391997
H        4.59692794      -0.34340987       0.23214991
H        3.85578840       0.61693977      -1.73851934
