16
Properties=species:S:1:pos:R:3 atomization_energy=-1575.73 smiles=C.C.C.C.C.N.O.H.H.H.H.H.H.H.H.H pbc="F F F"
C        3.35261867      -1.12914957      -0.51510979
C        2.52691889       0.00125000       0.07727997
C        3.22332868       1.35522942      -0.01099000
C        3.44535874       1.84659925      -1.42199942
C        3.21287863       3.28653867      -1.18271950
N        2.62157894       3.58030852      -0.07672997
O        2.38600904       2.35455897       0.59435978
H        2.83169896      -2.08324913      -0.38749984
H        4.32484823      -1.20462955      -0.01872999
H        3.52222868      -0.98041960      -1.58551941
H        2.30834905      -0.22103991       1.12967959
H        1.54982943       0.04742998      -0.42085983
H        4.16676825       1.33515950       0.54824977
H        2.70534888       1.48917947      -2.14373924
H        4.45327828       1.65208932      -1.79358925
H        3.49277860       4.03576846      -1.93583923
