14
Properties=species:S:1:pos:R:3 atomization_energy=-1471.33 smiles=C.C.N.C.O.C.C.H.H.H.H.H.H.H pbc="F F F"
C        0.89378967       0.77517972      -0.03374999
C        2.19504904       0.48125980      -0.08425996
N        3.16440883       1.44103946       0.04866998
C        4.51547844       1.16032951      -0.00033000
O        5.00107783       0.04581998      -0.16458994
C        5.35763805       2.37560895       0.17022994
C        6.69367755       2.28609898       0.14903995
H        0.15414994      -0.01217999      -0.14308994
H        0.52796978       1.78476926       0.11450996
H        2.53781909      -0.54182977      -0.23438990
H        2.86548889       2.39703894       0.18889993
H        4.87245803       3.33233881       0.31152987
H        7.19603728       1.33217946       0.00801000
H        7.31475712       3.16642874       0.27246988
