17
Properties=species:S:1:pos:R:3 atomization_energy=-1582.74 smiles=C.C.C.O.C.N.N.H.H.H.H.H.H.H.H.H.H pbc="F F F"
C        3.26642863      -0.79654966      -1.33838946
C        3.02821883      -0.16698994       0.02530999
C        3.11876866       1.35748942       0.00545000
O        2.68821887       1.85665932       1.26855956
C        4.54022810       1.81867930      -0.27632988
N        5.36442777       2.03686926       0.70226974
N        6.59211725       2.41149904       0.27861988
H        3.13883884      -1.88199930      -1.27880951
H        4.28027845      -0.59882976      -1.69864936
H        2.55598896      -0.41216983      -2.07681923
H        3.74749842      -0.57720977       0.74596974
H        2.03709925      -0.46470980       0.38995985
H        2.46057898       1.77760936      -0.76171968
H        3.49311873       1.89692924       1.82429922
H        4.83202800       1.91221925      -1.33833950
H        7.12420716       2.78429879       1.07067962
H        7.13462743       1.59987933      -0.03062999
