11
Properties=species:S:1:pos:R:3 atomization_energy=-1166.51 smiles=C.C.C.N.O.N.C.H.H.H.H pbc="F F F"
C        1.07811961      -0.15888993      -0.39084986
C        2.38457907       0.01293000      -0.14985994
C        3.05728891       1.27398948      -0.10041996
N        2.49272901       2.47204895      -0.28555987
O        3.52684861       3.39219860      -0.14471994
N        4.73511816       2.75412880       0.12888995
C        4.42594828       1.45949938       0.15168995
H        0.64002972      -1.15169953      -0.41211984
H        0.41465983       0.68312972      -0.57238980
H        2.98768889      -0.87615967       0.02303999
H        5.19901808       0.73213971       0.34706988
