17
Properties=species:S:1:pos:R:3 atomization_energy=-1572.65 smiles=C.C.O.N.C.N.C.H.H.H.H.H.H.H.H.H.H pbc="F F F"
C        0.93136962       0.94117963       0.84754965
C        2.43273902       0.79914968       0.70104972
O        2.97698878       2.07101914       0.35639986
N        4.37407806       1.95284925       0.29584988
C        4.87586804       3.09999875      -0.01199999
N        6.20331767       3.39762877      -0.15881994
C        7.20788727       2.36278901      -0.22606991
H        0.47167982      -0.01722000       1.10562952
H        0.48515980       1.30850953      -0.08274997
H        0.68770972       1.67082933       1.62721930
H        2.66712902       0.07747997      -0.08902997
H        2.86923879       0.45412984       1.64493939
H        4.23474831       3.98404837      -0.18584992
H        6.41899731       4.24655842      -0.66907973
H        7.12987704       1.68044934       0.62603978
H        8.20415668       2.81423890      -0.20462993
H        7.10970720       1.79012928      -1.15316949
