17
Properties=species:S:1:pos:R:3 atomization_energy=-1610.87 smiles=C.C.N.C.C.C.H.H.H.H.H.H.H.H.H.H.H pbc="F F F"
C        2.34664915      -0.44866983      -1.38132943
C        2.41638896       0.15878993       0.01316000
N        3.29907877       1.32787949       0.02233999
C        2.60377899       2.53508912      -0.50224982
C        3.25930859       3.32544865       0.64455976
C        3.29943860       1.96460928       1.36669952
H        1.73092934      -1.35435951      -1.36584941
H        3.34292865      -0.72716973      -1.74220930
H        1.90224927       0.24639989      -2.10090916
H        2.82606895      -0.59763977       0.69396975
H        1.40213944       0.38762986       0.36479987
H        1.50687937       2.51985891      -0.45320984
H        2.90833878       2.83670900      -1.50868947
H        4.24728816       3.73353845       0.40156983
H        2.64836895       4.10247828       1.10949953
H        4.19907826       1.77890924       1.96014920
H        2.41679900       1.77299927       1.98946921
