18
Properties=species:S:1:pos:R:3 atomization_energy=-1745.69 smiles=C.C.C.N.C.C.O.H.H.H.H.H.H.H.H.H.H.H pbc="F F F"
C        1.19462953      -0.34318987       0.15842993
C        2.24053906      -1.04007960       1.01435961
C        3.64573852      -0.51954980       0.71112973
N        4.66754839      -1.17609959       1.51840939
C        5.20218786      -2.44485900       1.06380953
C        4.99424823      -0.66868975       2.75960893
O        4.52149805       0.33890986       3.26869859
H        0.19642992      -0.72804973       0.38956984
H        1.38473944      -0.51132980      -0.90653965
H        1.19324953       0.73592972       0.34101986
H        2.19090903      -2.12017907       0.83410967
H        2.00357919      -0.88589966       2.07376917
H        3.68228845       0.55912979       0.90865962
H        3.89647858      -0.66411972      -0.34597987
H        4.39248815      -3.17776876       1.00972958
H        5.97022768      -2.81519877       1.74787931
H        5.64258766      -2.30841920       0.07252997
H        5.76281795      -1.26547948       3.27940880
