17
Properties=species:S:1:pos:R:3 atomization_energy=-1603.13 smiles=C.N.C.C.C.N.C.H.H.H.H.H.H.H.H.H.H pbc="F F F"
C       -1.64953939       0.60441978       0.28700990
N       -1.62306934      -0.82399971      -0.33189988
C       -0.21894992      -0.80052968       0.14744994
C        1.06492963      -1.08062955      -0.57082976
C        1.92202926       0.08635996       0.00790000
N        0.95364965       1.14313958       0.45034982
C       -0.23484991       0.70870974      -0.26865990
H       -2.39452900       1.26177955      -0.16996994
H       -1.76911929       0.61954975       1.37753942
H       -1.71635935      -0.82632967      -1.34910950
H       -0.14817994      -1.04435958       1.22068955
H        1.49102944      -2.05388925      -0.31050989
H        0.97835963      -1.01311958      -1.66227934
H        2.50909900      -0.24891990       0.86977966
H        2.60828891       0.47799981      -0.75056973
H        0.86208968       1.09643962       1.46630942
H       -0.21732991       0.95405963      -1.34382947
