14
Properties=species:S:1:pos:R:3 atomization_energy=-1377.38 smiles=C.C.O.N.C.C.O.H.H.H.H.H.H.H pbc="F F F"
C        1.00923961      -0.01353000      -0.04892998
C        2.52981893       0.05190998      -0.02897999
O        3.05458871      -1.07820957      -0.75478972
N        3.30952882      -0.66501972      -2.08951918
C        3.30125867       0.62498977      -2.08625919
C        3.09627888       1.25656954      -0.75610973
O        4.36943819       1.64333936      -0.25272989
H        0.57334980       0.83056965       0.49342980
H        0.66498976      -0.94349962       0.41566982
H        0.61832974      -0.01199999      -1.07197964
H        2.89552893      -0.00956000       1.00142958
H        3.48624851       1.23865957      -2.97866880
H        2.43560904       2.12439906      -0.79600967
H        4.91215832       0.83261965      -0.19694992
