13
Properties=species:S:1:pos:R:3 atomization_energy=-1359.15 smiles=C.N.C.C.O.N.C.H.H.H.H.H.H pbc="F F F"
C        1.10977962       0.00439000      -0.13099995
N        2.54569889       0.00835000      -0.25299990
C        3.30758865      -1.19558952       0.06755997
C        4.64460795      -0.56933975       0.49514981
O        5.63918775      -1.21015951       0.80708966
N        4.52924816       0.81306966       0.50651980
C        3.32809863       1.06924954       0.09892996
H        0.69267971      -0.94671962      -0.47873980
H        0.67280976       0.80411966      -0.73757972
H        0.80834968       0.15345994       0.91121964
H        3.44648868      -1.82279924      -0.81576967
H        2.87599874      -1.74903928       0.90550964
H        2.87794876       2.07288917       0.02863999
