16
Properties=species:S:1:pos:R:3 atomization_energy=-1577.48 smiles=C.C.C.N.O.C.C.H.H.H.H.H.H.H.H.H pbc="F F F"
C        2.72872888      -0.50111981       1.39099939
C        2.49156904       0.10049996       0.01893999
C        3.01857877       1.50151935      -0.04145999
N        4.18044839       1.79565925      -0.52754978
O        4.34004816       3.19584880      -0.37291986
C        3.04241877       3.74913857      -0.13062995
C        2.27101916       2.64419892       0.53839977
H        2.36227905      -1.53159938       1.42408948
H        2.21094918       0.07049997       2.16811923
H        3.79543858      -0.50744980       1.63822940
H        1.42131939       0.11480996      -0.21078992
H        2.99246879      -0.50276981      -0.74578969
H        2.60160894       4.03237839      -1.09275962
H        3.12807868       4.63976823       0.49835982
H        1.21078958       2.64107885       0.28201989
H        2.40415897       2.64401901       1.62369941
