16
Properties=species:S:1:pos:R:3 atomization_energy=-1482.66 smiles=C.N.C.C.C.N.H.H.H.H.H.H.H.H.H.H pbc="F F F"
C        1.18582948      -0.12715995      -0.01738999
N        2.64529884      -0.09079997      -0.04167998
C        3.21571862      -0.57127979      -1.29567950
C        3.17982879       0.90694963      -0.96977961
C        4.43365801       1.63903938      -0.60981974
N        5.13526810       2.00049924      -1.83620926
H        0.81267968       0.61567975       0.69514971
H        0.84996964      -1.11190954       0.32361988
H        0.71210972       0.07067997      -0.98669962
H        2.54977909      -0.94420962      -2.06404924
H        4.15666844      -1.10040955      -1.20941955
H        2.47943897       1.53710941      -1.50709940
H        5.09092794       1.03447961       0.02581999
H        4.17733840       2.54846899      -0.05541998
H        5.45192768       1.14883961      -2.29615918
H        5.98000754       2.51287892      -1.58848936
