17
Properties=species:S:1:pos:R:3 atomization_energy=-1586.98 smiles=C.C.N.C.N.C.O.H.H.H.H.H.H.H.H.H.H pbc="F F F"
C        0.97540962       0.05880998      -0.16638993
C        2.46975905      -0.04546998       0.00661000
N        2.92792877      -0.01849999       1.42566946
C        3.31250860      -0.83000967      -0.99237960
N        2.70036887      -1.59828940      -2.08060924
C        3.33227876       0.67637974      -1.01521961
O        4.50387827       1.31238950      -0.46442981
H        0.68052970       0.19542993      -1.21147958
H        0.58624979       0.91508965       0.39646984
H        0.48690981      -0.84715968       0.20865993
H        3.85619844      -0.44079984       1.50002946
H        2.32536904      -0.61601977       1.99422918
H        4.22056830      -1.29854951      -0.61674976
H        1.97114920      -1.07317960      -2.56079890
H        2.26268920      -2.44566898      -1.72237935
H        2.84636900       1.17743959      -1.84448925
H        4.32454846       1.53242942       0.47010982
