14
Properties=species:S:1:pos:R:3 atomization_energy=-1377.11 smiles=C.C.O.C.O.N.C.H.H.H.H.H.H.H pbc="F F F"
C        0.98463959       0.01586000      -0.00982000
C        2.50460902      -0.01225999      -0.04241998
O        2.95100875       0.17728993      -1.37287949
C        3.10256875      -1.24411952       0.61375976
O        3.39099876      -0.86138965       1.96576925
N        3.54804873       0.54660981       2.00030923
C        3.05232884       1.00536961       0.90311962
H        0.59210974      -0.09258997       1.00721957
H        0.56905978      -0.78478970      -0.63108975
H        0.60683977       0.96073966      -0.41684985
H        3.92323856       0.11205996      -1.38127947
H        4.03739852      -1.56200933       0.13886994
H        2.41747904      -2.09727912       0.62311974
H        3.00115883       2.07732918       0.66354977
