14
Properties=species:S:1:pos:R:3 atomization_energy=-1480.66 smiles=C.C.C.C.O.C.N.H.H.H.H.H.H.H pbc="F F F"
C        0.96915963      -0.11847995      -0.01345000
C        2.48085909       0.03827999       0.02714999
C        2.89927882       1.46168937       0.01423999
C        3.19049887       2.29634918       1.06973957
O        3.52684861       3.51628855       0.56617980
C        3.42012864       3.35109863      -0.78045969
N        3.05116887       2.15163923      -1.16786955
H        0.69630974      -1.17863955      -0.00763000
H        0.54833979       0.33655987      -0.91663966
H        0.49853979       0.35898985       0.85282969
H        2.92222885      -0.47657981      -0.83496968
H        2.87268891      -0.45516982       0.92430965
H        3.20683883       2.19554916       2.14438924
H        3.64650864       4.21198828      -1.39375940
