16
Properties=species:S:1:pos:R:3 atomization_energy=-1511.72 smiles=C.C.O.C.C.N.O.H.H.H.H.H.H.H.H.H pbc="F F F"
C        1.62832930      -0.73334970       0.29686987
C        3.05405882      -0.41767983      -0.11189995
O        3.38013868       0.89045966       0.38173985
C        4.62640830       1.35191947       0.09696997
C        4.84047807       2.72802892       0.65362974
N        5.48556797       0.66145977      -0.58659977
O        6.68430748       1.36720948      -0.75116971
H        1.33133945      -1.72441932      -0.05709998
H        0.93660966       0.01046000      -0.11221996
H        1.52332935      -0.70034969       1.38630944
H        3.13590877      -0.43230984      -1.20438958
H        3.73548846      -1.15677959       0.32365988
H        3.99643834       3.02889887       1.28110951
H        4.93759785       3.44159875      -0.16888993
H        5.74578761       2.74447890       1.26637955
H        7.22659712       0.74153968      -1.26709945
