17
Properties=species:S:1:pos:R:3 atomization_energy=-1569.14 smiles=C.C.N.C.N.C.O.H.H.H.H.H.H.H.H.H.H pbc="F F F"
C        1.79805930      -0.19039993       0.44001982
C        3.24972884       0.02791999       0.05126998
N        3.57172850       1.44377940       0.24175990
C        4.79254825       1.72261932      -0.06738998
N        5.34413782       2.97992894       0.02962999
C        6.51205759       3.37766861      -0.72828970
O        4.37056813       3.99111844       0.08912997
H        1.52147938      -1.24204951       0.31431987
H        1.13139961       0.41745983      -0.18093993
H        1.62683942       0.08811997       1.48524941
H        3.39058872      -0.26283989      -0.99640958
H        3.89033835      -0.60156976       0.68007973
H        5.51060781       0.96688960      -0.43361982
H        7.31960693       2.64995889      -0.60192978
H        6.87888718       4.34903822      -0.38179984
H        6.27314732       3.45440860      -1.79359934
H        3.58309855       3.50863862       0.42794984
