14
Properties=species:S:1:pos:R:3 atomization_energy=-1375.25 smiles=C.C.C.O.C.N.O.H.H.H.H.H.H.H pbc="F F F"
C        0.99048963      -0.01198000       0.35914986
C        2.41196913      -0.06345997      -0.17366994
C        2.82080885       1.24420947      -0.81903969
O        4.13558843       1.12802960      -1.37782947
C        4.48215810      -0.11044996      -1.79979925
N        3.77538859      -1.19213953      -1.73514933
O        2.47562903      -1.05348956      -1.20104947
H        0.87034968       0.78321970       1.10093957
H        0.72512969      -0.96695962       0.82501969
H        0.27152988       0.14984995      -0.45209983
H        3.10361869      -0.34646987       0.63007973
H        2.84063881       2.05250925      -0.08165997
H        2.14369912       1.53266939      -1.63051941
H        5.49976767      -0.10480996      -2.21600918
