14
Properties=species:S:1:pos:R:3 atomization_energy=-1454.24 smiles=C.C.O.C.C.C.N.H.H.H.H.H.H.H pbc="F F F"
C        2.30422898       1.87472926      -0.73592972
C        3.10838876       2.83381880      -1.20764957
O        4.43679802       3.03954876      -0.97005963
C        5.09461804       2.12245913      -0.09204996
C        6.55716735       2.53374899       0.00762000
C        7.28949725       1.62918937       0.89525963
N        7.86151707       0.90688964       1.60007931
H        1.25851956       1.85471927      -1.02864956
H        2.63739885       1.09455962      -0.06288997
H        2.74289880       3.60187856      -1.88236923
H        5.02026813       1.10295960      -0.49195981
H        4.62696798       2.15699925       0.90026967
H        6.62716757       3.56553856       0.37146984
H        7.00880699       2.53631898      -0.99143960
