12
Properties=species:S:1:pos:R:3 atomization_energy=-1338.75 smiles=C.C.N.C.O.C.C.H.H.H.H.H pbc="F F F"
C        1.04820959       0.01438999       0.00459000
C        2.54012893      -0.02289999       0.00254000
N        3.23619883      -1.11531955       0.00362000
C        4.54872813      -0.71790974       0.00184000
O        5.54459784      -1.41898949       0.00148000
C        4.58613826       0.75397967       0.00031000
C        3.33098859       1.20137952       0.00073000
H        0.64392975      -1.00133963      -0.00879000
H        0.69319970       0.55115979      -0.87925968
H        0.69570970       0.52681979       0.90374963
H        5.50400784       1.31298955      -0.00078000
H        2.96225894       2.21004912       0.00012000
