14
Properties=species:S:1:pos:R:3 atomization_energy=-1346.96 smiles=C.C.C.N.N.C.H.H.H.H.H.H.H.H pbc="F F F"
C        0.84889969      -0.38998985       0.09298997
C        2.35420899      -0.20685992       0.07198997
C        2.69347896       1.23556952      -0.17549994
N        3.33102871       1.59157941      -1.24292952
N        3.53244860       2.96733887      -1.25673948
C        4.20049838       3.31625875      -2.30362919
H        0.59404979      -1.43750947       0.27960987
H        0.40429984      -0.09178997      -0.86203965
H        0.38965983       0.21988991       0.87789968
H        2.80317897      -0.83415970      -0.70515970
H        2.78001900      -0.49331981       1.03908958
H        2.37461906       1.96661923       0.58926975
H        4.44677822       4.37633844      -2.46868891
H        4.55009829       2.59636903      -3.06334890
