14
Properties=species:S:1:pos:R:3 atomization_energy=-1373.53 smiles=C.C.C.O.C.N.O.H.H.H.H.H.H.H pbc="F F F"
C        1.10039958      -0.02425999       0.05583997
C        2.53325896       0.01316999      -0.45736983
C        2.72411905      -1.08378962      -1.47126937
O        2.99061870      -0.89637966      -2.65382889
C        2.82269881       1.38141951      -1.00968958
N        3.51649874       2.23137918      -0.32316988
O        3.59816853       3.42920853      -1.04194957
H        0.93933963       0.73993971       0.82385966
H        0.86318965      -1.00086960       0.49127981
H        0.38351986       0.16169994      -0.75224969
H        3.22329865      -0.18502992       0.37105986
H        2.60983898      -2.11104922      -1.08279960
H        2.38059906       1.64463937      -1.98822925
H        4.14827843       3.98768851      -0.46161981
