16
Properties=species:S:1:pos:R:3 atomization_energy=-1481.4 smiles=C.N.C.C.N.C.H.H.H.H.H.H.H.H.H.H pbc="F F F"
C        1.09528962      -0.00765000       0.05691998
N        2.55161909       0.00863000      -0.02080000
C        3.11334884       1.02320962       0.91906967
C        4.17662834      -0.02450999       1.33829951
N        5.31868769       0.03088999       0.40745984
C        3.13551867      -1.05988956       0.83738966
H        0.70387974      -0.86886963      -0.49481980
H        0.68766973       0.89299962      -0.41426982
H        0.70755974      -0.05797998       1.08113951
H        2.45377916       1.31815943       1.74654928
H        3.48322861       1.93549921       0.43920983
H        4.44758821      -0.06373997       2.39516917
H        4.99856814       0.14906994      -0.55807978
H        5.87313768      -0.82315969       0.39970984
H        3.52676862      -1.92368922       0.28971987
H        2.48427894      -1.43310944       1.63930937
