12
Properties=species:S:1:pos:R:3 atomization_energy=-1187.63 smiles=C.C.N.N.C.C.H.H.H.H.H.H pbc="F F F"
C        0.86140965       0.08249996      -0.09965996
C        2.35194911      -0.02992999      -0.06394998
N        3.08250866      -1.10207960      -0.08133997
N        2.40533913      -2.27545918      -0.13635995
C        3.16045883       1.16088956       0.00905000
C        3.83129839       2.15637927       0.06944998
H        0.54912978       1.13038953      -0.11379995
H        0.43669983      -0.39861983       0.78611968
H        0.47464982      -0.41161984      -0.99536960
H        3.07332885      -3.03656873      -0.28730989
H        1.97205923      -2.48680906       0.76615970
H        4.43568827       3.03178882       0.12082995
