15
Properties=species:S:1:pos:R:3 atomization_energy=-1526.96 smiles=C.C.C.C.N.C.N.H.H.H.H.H.H.H.H pbc="F F F"
C        0.73835974      -0.10463996       0.02910999
C        2.13290918       0.44203983      -0.04256998
C        0.95442961       1.35784950      -0.25192991
C        0.62449974       2.41025908       0.79062972
N        0.19593992       3.59720866      -0.01566999
C        0.26187990       3.20314874      -1.25088956
N        0.71443975       1.95505917      -1.55361944
H        0.36353986      -0.39532984       1.00558958
H        0.40686983      -0.74601970      -0.77704969
H        2.73810905       0.19113992      -0.90593961
H        2.69826897       0.53206979       0.87867964
H        1.49177936       2.67637898       1.40062949
H       -0.20432992       2.09806917       1.43184943
H       -0.03857999       3.82530855      -2.10999914
H        0.22035991       1.46177945      -2.28623903
