12
Properties=species:S:1:pos:R:3 atomization_energy=-1291.9 smiles=C.C.O.C.C.C.N.H.H.H.H.H pbc="F F F"
C        0.98714959      -0.01077000       0.00644000
C        2.51999896       0.00000000       0.00000000
O        2.94558893      -0.68924970       1.18755959
C        3.00920870      -0.77618968      -1.15878954
C        3.41019865      -1.40718947      -2.09950923
C        3.00201878       1.36116943       0.00000000
N        3.38622869       2.44615901       0.00000000
H        0.56981980       0.47280982      -0.88498962
H        0.59217976       0.50733981       0.88903966
H        0.59928976      -1.03616960       0.04927998
H        2.75354894      -0.11023995       1.94483925
H        3.77375853      -1.96858917      -2.92975893
