18
Properties=species:S:1:pos:R:3 atomization_energy=-1669.35 smiles=C.C.O.C.N.C.O.H.H.H.H.H.H.H.H.H.H.H pbc="F F F"
C        3.03190893      -1.10382952      -0.56721978
C        2.70126893       0.07136997       0.34402985
O        3.28155866      -0.15155994       1.63360934
C        3.18439876       1.43259948      -0.21007992
N        2.84595896       2.53429907       0.73201973
C        4.70410817       1.48704941      -0.45979982
O        5.06380789       2.81343901      -0.85727967
H        2.65258894      -0.94028966      -1.57977938
H        2.58318901      -2.02249924      -0.17459993
H        4.11014840      -1.28611955      -0.61238973
H        1.61334941       0.11379995       0.48446980
H        2.95804879      -1.01122962       1.95697929
H        2.66926904       1.64961937      -1.15307953
H        3.22288862       2.25270900       1.64516939
H        1.83548923       2.53996895       0.87377968
H        5.00444797       0.80821966      -1.26223955
H        5.27574798       1.24015955       0.44111983
H        4.48015812       3.38544874      -0.31394989
