15
Properties=species:S:1:pos:R:3 atomization_energy=-1486.28 smiles=C.N.C.C.C.C.H.H.H.H.H.H.H.H.H pbc="F F F"
C        1.05325956      -0.00127000       0.03547998
N        2.51554909      -0.00998999      -0.06261998
C        2.96918872      -1.18890956      -0.84073967
C        3.33851866      -0.66562973      -2.18440923
C        3.34702878       0.66917972      -2.17376918
C        2.98411890       1.17565952      -0.82163965
H        0.71582971       0.87375968       0.60100978
H        0.70423969      -0.88225965       0.58437976
H        0.56300976       0.01122000      -0.94497961
H        2.20681902      -1.97171922      -0.91245966
H        3.85248841      -1.62289939      -0.35970984
H        3.59281860      -1.28831950      -3.02829882
H        3.60929861       1.30230950      -3.00770885
H        3.87291841       1.59092940      -0.33386986
H        2.23165902       1.96921925      -0.88094967
