12
Properties=species:S:1:pos:R:3 atomization_energy=-1252.07 smiles=C.C.N.C.C.N.H.H.H.H.H.H pbc="F F F"
C        0.90098963       0.08597997       0.03758998
C        2.40927903       0.00691000       0.07004997
N        2.92906880      -1.26814952       0.17979993
C        3.13901875       1.13798949       0.00000000
C        4.54501836       1.13798949       0.00000000
N        5.69602789       1.13798949       0.00000000
H        0.53547979       1.11610959       0.00892000
H        0.47807983      -0.39434985       0.92858962
H        0.51633981      -0.43220982      -0.84770970
H        2.34245919      -2.01012921      -0.19688992
H        3.91179836      -1.37625946      -0.06664998
H        2.65453895       2.10436913      -0.07645996
