16
Properties=species:S:1:pos:R:3 atomization_energy=-1578.52 smiles=C.C.O.C.C.N.C.H.H.H.H.H.H.H.H.H pbc="F F F"
C        0.93632963       0.13786995       0.16836994
C        2.40524905      -0.13121995      -0.11958995
O        2.57336903      -1.49794937      -0.55388976
C        2.67791896      -1.49754942      -1.99074916
C        3.17736881      -0.14614995      -2.37848906
N        2.28510909       1.00293960      -2.46579896
C        2.97538874       0.73421974      -1.20336953
H        0.77683969       1.17464957       0.47632981
H        0.57897975      -0.52612979       0.96221964
H        0.31007988      -0.06263998      -0.70876974
H        2.98381888      -0.01144999       0.80214971
H        3.37011861      -2.29146910      -2.28616913
H        1.69189937      -1.70893930      -2.41710912
H        4.11762851      -0.13218995      -2.90864889
H        2.73182903       1.77380925      -2.96535883
H        3.76453860       1.40139948      -0.88986964
