15
Properties=species:S:1:pos:R:3 atomization_energy=-1439.5 smiles=C.C.N.N.O.C.C.H.H.H.H.H.H.H.H pbc="F F F"
C        3.20953878      -1.43594943      -0.15173994
C        2.64185905      -0.03481998      -0.20293992
N        1.37003950       0.13910994      -0.45194982
N        3.46484855       1.06478958       0.01312000
O        2.75777903       2.27664918      -0.07484996
C        4.81325809       1.11884954       0.28802988
C        5.57327782       2.20056903       0.49053982
H        3.99068847      -1.54163939      -0.90994966
H        2.43612909      -2.18473903      -0.34231987
H        3.63698868      -1.62106935       0.83786966
H        0.90475965      -0.76523971      -0.58688976
H        1.84623930       1.96184928      -0.27320990
H        5.28325786       0.14168995       0.33880988
H        5.14739817       3.19834864       0.44961983
H        6.63290760       2.10979917       0.70054973
