16
Properties=species:S:1:pos:R:3 atomization_energy=-1575.89 smiles=C.C.C.O.N.C.C.H.H.H.H.H.H.H.H.H pbc="F F F"
C        1.78643932      -0.15957993       0.56258976
C        2.60677895      -0.20092991      -0.72231974
C        1.85246923      -1.02691958      -1.74901935
O        2.28048915      -2.08067913      -2.21846916
N        2.74887880       1.16612960      -1.25436946
C        3.99783853       1.81562925      -0.85836968
C        3.80525856       1.29763948      -2.25814901
H        2.29440901       0.42145985       1.34002949
H        1.62523938      -1.17244949       0.94973965
H        0.79640968       0.28297988       0.39784984
H        3.56734854      -0.69402974      -0.52633979
H        0.86753965      -0.63484974      -2.05422914
H        4.68428805       1.28931949      -0.20427993
H        3.94629836       2.88697894      -0.70144973
H        3.61811859       2.01806919      -3.04538872
H        4.34803848       0.41147983      -2.56480895
