18
Properties=species:S:1:pos:R:3 atomization_energy=-1707.83 smiles=C.N.C.C.C.C.O.H.H.H.H.H.H.H.H.H.H.H pbc="F F F"
C        1.09715952       0.00771000       0.01382000
N        2.55682897      -0.00236000      -0.00174000
C        3.09435889       1.01766962       0.93563963
C        4.13795833      -0.02789999       1.37171952
C        3.08426867      -1.06607962       0.90954966
C        3.60430851      -2.28169908       0.15345994
O        4.32655853      -3.12580870       1.04783961
H        0.71336973      -0.86182965      -0.53015977
H        0.72685974       0.90160967      -0.49910981
H        0.66552975      -0.00672000       1.02159962
H        2.42235912       1.32961944       1.74542930
H        3.50344867       1.91022924       0.45348983
H        5.06045794      -0.00951999       0.77924970
H        4.39145813      -0.03891998       2.43455909
H        2.40317917      -1.35606943       1.72380931
H        4.26629830      -2.00797922      -0.67536972
H        2.77221893      -2.86481896      -0.25376991
H        5.16522789      -2.67615895       1.24879950
