18
Properties=species:S:1:pos:R:3 atomization_energy=-1717.86 smiles=C.C.N.C.C.C.O.H.H.H.H.H.H.H.H.H.H.H pbc="F F F"
C        0.78437966      -0.55727976      -0.37480985
C        2.23805915      -0.60085977      -0.69848969
N        2.74081883       0.05000998      -1.90915923
C        3.07589884       0.65418973      -0.61814976
C        4.48083841       0.62078977      -0.08008997
C        5.44039765      -0.33827986      -0.78011968
O        5.64478799       0.06045998      -2.13105909
H        0.64155973      -0.59427979       0.71009971
H        0.27320990      -1.41991946      -0.81414970
H        0.29984987       0.35165985      -0.74882972
H        2.68846893      -1.55170942      -0.44200983
H        1.99955918       0.57885976      -2.37521910
H        2.57664909       1.58542933      -0.37324985
H        4.43670819       0.37180986       0.98668959
H        4.88649824       1.63688939      -0.15857994
H        5.07588799      -1.36935947      -0.77182971
H        6.41328756      -0.32145987      -0.28036990
H        4.74813795       0.06094998      -2.52884897
