18
Properties=species:S:1:pos:R:3 atomization_energy=-1724.16 smiles=C.C.C.C.N.C.O.H.H.H.H.H.H.H.H.H.H.H pbc="F F F"
C        3.09630866      -1.43203943       1.35855944
C        3.01228891       0.07235997       1.45576942
C        2.57832911       0.63886975       2.59766904
C        3.40616867       0.81955968       0.19097993
N        3.13326888       2.26901918       0.24052990
C        4.89981831       0.63538972      -0.17663992
O        5.22838792       1.45637943      -1.30133954
H        4.13504845      -1.75436927       1.23751954
H        2.51523898      -1.79080931       0.50275981
H        2.70211904      -1.92687920       2.25290909
H        2.30022903       0.03356998       3.45694857
H        2.48152904       1.71081929       2.72742887
H        2.80294885       0.43531983      -0.64122974
H        3.65398849       2.67276887       1.01855959
H        2.14495926       2.39931901       0.45382982
H        5.12255817      -0.40137983      -0.44567983
H        5.55288793       0.92747962       0.65314975
H        4.63602818       2.23283917      -1.21272950
