18
Properties=species:S:1:pos:R:3 atomization_energy=-1713.57 smiles=C.C.N.C.C.O.C.H.H.H.H.H.H.H.H.H.H.H pbc="F F F"
C        1.07570960       0.02371999       0.14456994
C        2.58627906      -0.02043999      -0.07713997
N        2.88058890      -0.70535973      -1.33767953
C        3.15240871       1.39249950      -0.11490995
C        3.19986869       2.15532906       1.21778951
O        4.59264840       2.49495912       1.01433961
C        4.68254797       1.52200940      -0.05721998
H        0.83525967       0.50332979       1.09931960
H        0.65021974      -0.98563964       0.16324994
H        0.56915977       0.59270978      -0.64405976
H        3.04671875      -0.59107979       0.73795973
H        2.36957899      -0.26404990      -2.10243917
H        2.53097890      -1.66291938      -1.29401953
H        2.71883901       2.00326920      -0.91950961
H        3.07158877       1.55961938       2.12697915
H        2.56591895       3.04498877       1.26634952
H        5.14734820       1.94431919      -0.95231961
H        5.23764797       0.63566975       0.26569989
