14
Properties=species:S:1:pos:R:3 atomization_energy=-1451.64 smiles=C.C.O.C.C.C.N.H.H.H.H.H.H.H pbc="F F F"
C        0.95107966      -0.07732997      -1.15529954
C        1.96100927      -0.19306992      -0.02826999
O        1.61978941       0.77148970       0.97128962
C        2.44629905       0.82003968       2.08696912
C        2.18223918       1.74405927       3.02003876
C        3.55096870      -0.07625997       2.26376918
N        4.44250828      -0.80754966       2.39422898
H        1.16968949      -0.79595971      -1.95010919
H        0.95993964       0.93240960      -1.57891944
H       -0.06307998      -0.25831990      -0.78398968
H        2.96464877       0.00775999      -0.42045982
H        1.91833930      -1.20479949       0.39137985
H        1.34790941       2.42711910       2.89672876
H        2.78217895       1.84307923       3.91935846
