17
Properties=species:S:1:pos:R:3 atomization_energy=-1654.22 smiles=C.C.C.C.N.N.C.H.H.H.H.H.H.H.H.H.H pbc="F F F"
C        1.72241934      -0.14133995      -0.04493999
C        0.86696963      -1.26896947       0.53098981
C       -0.41183984      -1.50082935      -0.25094990
C       -1.48896940      -0.45662981      -0.07375998
N       -1.38737945       0.80601965       0.22206991
N       -0.16921994       1.34648942       0.45856982
C        0.93092962       1.09311957      -0.46773983
H        2.28076899      -0.51185979      -0.91374964
H        2.47083902       0.13959995       0.70707975
H        1.46384944      -2.18853914       0.53903981
H        0.62603978      -1.04866959       1.57856933
H       -0.85442966      -2.44764903       0.08217997
H       -0.21464992      -1.60905940      -1.32320946
H       -2.51309895      -0.81009966      -0.29010988
H       -0.28069988       2.35674896       0.57457978
H        1.60926934       1.95463929      -0.47241981
H        0.55818980       0.99235960      -1.49413942
