8
Properties=species:S:1:pos:R:3 atomization_energy=-799.52 smiles=O.C.C.C.H.H.H.H pbc="F F F"
O        1.00029958      -0.00217000      -0.01150000
C        2.41999907       0.00000000       0.00000000
C        2.90201889       1.36116943       0.00000000
C        3.29929881       2.48306901       0.00000000
H        0.72305970      -0.93168964      -0.01060000
H        2.77241903      -0.54144976      -0.88326967
H        2.75802884      -0.53630977       0.89197964
H        3.64381853       3.49150861      -0.00011000
