16
Properties=species:S:1:pos:R:3 atomization_energy=-1558.56 smiles=C.C.O.N.C.C.C.H.H.H.H.H.H.H.H.H pbc="F F F"
C        0.26790991      -0.49776980       0.64042972
C        1.55637945      -0.92977962      -0.03042999
O        2.64805883      -0.29932987       0.63879973
N        3.83677852      -0.65650972      -0.01509000
C        4.83070831      -0.12330995       0.61588975
C        6.22222738      -0.31269987       0.16465993
C        7.23179717       0.24002990       0.84567969
H       -0.59561979      -0.97552961       0.17048993
H        0.14818994       0.58844974       0.57793976
H        0.28124990      -0.75609970       1.70386934
H        1.54877935      -0.63195972      -1.08517959
H        1.66919940      -2.01778923       0.03591998
H        4.68242837       0.49558982       1.51899935
H        6.37784764      -0.90883965      -0.72703971
H        7.07400737       0.83571967       1.73887929
H        8.25687675       0.10165996       0.51368979
