15
Properties=species:S:1:pos:R:3 atomization_energy=-1456.37 smiles=C.C.C.N.N.C.O.H.H.H.H.H.H.H.H pbc="F F F"
C        1.36089943      -0.47181980      -0.47103982
C        2.34804908      -0.00511000       0.30544989
C        3.05431872       1.29833945       0.09341996
N        4.48499834       1.05087957      -0.10542996
N        5.18641817       2.25024902      -0.29398989
C        6.22497779       2.59314903       0.53481982
O        6.87005710       3.62596862       0.41073984
H        0.88765967      -1.42458948      -0.25223990
H        1.00177963       0.07786997      -1.33577948
H        2.66456887      -0.59280977       1.16501959
H        2.90199895       1.92440925       0.98056961
H        2.63815887       1.83346932      -0.76897970
H        4.60133819       0.46768980      -0.93885963
H        4.95797814       2.89777897      -1.04436961
H        6.42452740       1.84949929       1.32393946
