18
Properties=species:S:1:pos:R:3 atomization_energy=-1712.31 smiles=C.C.O.C.N.C.C.H.H.H.H.H.H.H.H.H.H.H pbc="F F F"
C        0.51235979      -0.36065988      -0.40029985
C        1.98313923      -0.29239988      -0.77910972
O        2.16524922       0.79530970      -1.68941933
C        2.87623896      -0.09561996       0.46186981
N        4.28886831       0.00462000       0.04849998
C        5.22035773      -0.37472986       1.10825957
C        4.96020825      -1.28721946      -0.06313998
H        0.31780986      -1.19054959       0.28428989
H       -0.10481996      -0.49242981      -1.29443954
H        0.18521992       0.57173980       0.07392997
H        2.26154917      -1.21373946      -1.30416943
H        3.12860883       0.95819962      -1.69697930
H        2.69274897      -0.90184964       1.18395958
H        2.61390908       0.85024966       0.94993962
H        4.82674822      -0.65311972       2.07805918
H        6.15797778       0.16669993       1.13102957
H        5.72074777      -1.35633943      -0.83141969
H        4.38429849      -2.18975916       0.09725997
