18
Properties=species:S:1:pos:R:3 atomization_energy=-1722.86 smiles=C.C.N.C.O.C.C.H.H.H.H.H.H.H.H.H.H.H pbc="F F F"
C        0.95091961       0.10125996      -0.04662998
C        2.47306913      -0.11497996      -0.02900999
N        2.76288899      -1.07270963       1.05691956
C        2.93344877      -0.76794968      -1.36306948
O        2.42387917      -2.10048915      -1.47332941
C        3.16677872       1.21932948       0.15988994
C        3.96682853       1.60969931       1.16365953
H        0.65385974       0.75426973      -0.87616964
H        0.59979979       0.56934978       0.88137964
H        0.40703984      -0.84342966      -0.16504994
H        2.44161906      -0.67280976       1.93832923
H        3.77401843      -1.17918951       1.13878951
H        4.02681852      -0.83235969      -1.41354948
H        2.58732901      -0.19826992      -2.23223913
H        2.39398902      -2.42254913      -0.54776978
H        2.97688885       1.94642919      -0.63107978
H        4.21888828       0.97085959       2.00265919
H        4.39485804       2.60860886       1.16562948
