13
Properties=species:S:1:pos:R:3 atomization_energy=-1300.48 smiles=C.C.C.O.N.C.N.H.H.H.H.H.H pbc="F F F"
C        1.04102957      -0.05065998       0.20750992
C        2.36286900      -0.00369000       0.02752999
C        3.27585875       1.17375959       0.00580000
O        4.59260803       0.71409973      -0.39627984
N        4.46871843      -0.65396976      -0.70569975
C        3.26667868      -1.12356952      -0.27426988
N        3.01657880      -2.37426908      -0.09693996
H        0.48392981      -0.98005959       0.15211994
H        0.47194981       0.85495968       0.39359986
H        3.37228865       1.62002937       1.00021959
H        2.94689878       1.93305929      -0.71027975
H        5.26879776      -1.23875949      -0.48358979
H        2.07074914      -2.50270897       0.26942989
