20
Properties=species:S:1:pos:R:3 atomization_energy=-1854.62 smiles=C.C.C.N.C.O.C.H.H.H.H.H.H.H.H.H.H.H.H.H pbc="F F F"
C        2.94657882      -0.90085962      -0.90320964
C        2.46604902       0.01227000       0.21595991
C        2.97592873       1.46013942       0.08174997
N        2.39635916       2.27516900       1.16594956
C        4.51469823       1.57438933       0.12840995
O        5.01557780       0.96875962       1.32725951
C        6.43069741       1.07055964       1.40985939
H        2.47814906      -1.88605931      -0.80975971
H        4.02982833      -1.04653960      -0.86642965
H        2.68281898      -0.49259982      -1.88359921
H        2.76439894      -0.41684985       1.18038960
H        1.36801946       0.01363999       0.20247992
H        2.62567907       1.87675927      -0.86879967
H        2.86048895       1.99954921       2.03527919
H        1.41276940       2.04124922       1.28668944
H        4.81208828       2.63054906       0.10307996
H        4.95943813       1.07885957      -0.74314968
H        6.75454742       0.60531979       2.34428909
H        6.74068737       2.11964917       1.41575940
H        6.90065731       0.54231980       0.57511977
