18
Properties=species:S:1:pos:R:3 atomization_energy=-1699.78 smiles=C.C.O.N.C.C.C.H.H.H.H.H.H.H.H.H.H.H pbc="F F F"
C        2.38176912       1.06678956      -1.38692942
C        3.28543875       1.34918949      -0.20375992
O        4.58719805       1.67038939      -0.69284972
N        5.41220771       1.96287917       0.40339983
C        6.58484758       2.28190902      -0.03586998
C        7.68614685       2.65554904       0.91524963
C        8.82395643       1.65847936       0.81314965
H        1.37138947       0.81310966      -1.05428958
H        2.77591887       0.23836991      -1.98459922
H        2.32780909       1.93855923      -2.04728915
H        3.34586856       0.46664982       0.44267983
H        2.89246891       2.19302912       0.37439984
H        6.82263749       2.29518922      -1.11458956
H        7.29905707       2.68742882       1.93881926
H        8.03985673       3.65594860       0.64626974
H        8.48290651       0.64704976       1.05743961
H        9.62958654       1.92644923       1.50340944
H        9.23569644       1.63425934      -0.20129993
