12
Properties=species:S:1:pos:R:3 atomization_energy=-1270.43 smiles=C.C.N.O.C.O.C.H.H.H.H.H pbc="F F F"
C        1.04427960       0.00007000       0.09101996
C        2.52501908       0.01108999      -0.06890997
N        3.23455868      -1.05017960      -0.25831990
O        4.59824814      -0.63688977      -0.36862985
C        4.67744836       0.72953969      -0.23989991
O        5.70331774       1.39050949      -0.29151988
C        3.30711881       1.26177955      -0.02648999
H        0.66247976      -1.02340959       0.04922998
H        0.58945976       0.58689979      -0.71132970
H        0.77979972       0.44417982       1.05411957
H        3.01021878       1.92393929      -0.84108966
H        3.21650867       1.73365931       0.95302961
