18
Properties=species:S:1:pos:R:3 atomization_energy=-1725.05 smiles=C.C.N.C.C.C.O.H.H.H.H.H.H.H.H.H.H.H pbc="F F F"
C        0.93693964      -0.05864998       0.07103997
C        2.44631899      -0.01057999       0.03562998
N        2.97793880      -0.01803999      -1.34601945
C        3.17573875       1.07713956       0.85574966
C        4.22650843       0.02336999       1.26625956
C        3.22737885      -1.08704962       0.86086965
O        3.77147847      -2.18633906       0.10211996
H        0.56542975      -0.07446997       1.10164963
H        0.55550978      -0.95572961      -0.42996984
H        0.49963980       0.81664967      -0.42223983
H        3.96124848       0.25101991      -1.42095944
H        2.48427894       0.62349975      -1.96916928
H        2.59457899       1.44661938       1.70976935
H        3.56240865       1.94303925       0.31067986
H        5.14115801       0.04639998       0.66323971
H        4.50641823       0.03786999       2.32372914
H        2.66458905      -1.46507944       1.72351938
H        3.62268856      -1.90110924      -0.82224966
