16
Properties=species:S:1:pos:R:3 atomization_energy=-1614.34 smiles=C.C.C.C.N.C.O.H.H.H.H.H.H.H.H.H pbc="F F F"
C        0.87409963       0.03543998       0.12155995
C        2.34724919      -0.24562991      -0.03057999
C        2.69141893      -1.71066929      -0.04185999
C        3.22021869       0.77038972      -0.14110995
N        4.57246796       0.61951973      -0.28087989
C        5.46961761       1.64696939      -0.39351984
O        6.67509739       1.47391948      -0.51669979
H        0.65318974       1.10801961       0.12855995
H        0.50298981      -0.38603986       1.06146953
H        0.31547986      -0.41325984      -0.70634975
H        2.16966905      -2.21202916      -0.86395964
H        2.37875906      -2.17619913       0.89878962
H        3.75824849      -1.90971928      -0.16532993
H        2.86322876       1.79925926      -0.12142996
H        4.98955790      -0.30191987      -0.30784987
H        5.01302824       2.64989883      -0.36376985
