17
Properties=species:S:1:pos:R:3 atomization_energy=-1625.54 smiles=C.C.C.N.N.C.C.H.H.H.H.H.H.H.H.H.H pbc="F F F"
C        0.95678960      -0.17820993       0.11478995
C        0.52902980      -0.11671996       1.55365944
C       -0.80317966       0.47905982       1.92788928
N       -0.57668978      -0.96153961       2.01787918
N        1.74777926       1.02631960      -0.17119993
C        3.17670871       0.76966970      -0.34123986
C        2.29138911       1.03533962      -1.52800934
H        1.50955938      -1.11146960      -0.05281998
H        0.08008997      -0.20013993      -0.54473978
H        1.36236951      -0.00872000       2.23781918
H       -1.46694946       0.80787971       1.13754955
H       -0.88177965       1.02328960       2.86037893
H       -0.42987983      -1.24219953       2.98934872
H        3.55543850      -0.23420991      -0.19198993
H        3.83977848       1.56216944      -0.01502999
H        2.35224913       2.00763920      -2.00156924
H        2.04654918       0.21305992      -2.18908922
