14
Properties=species:S:1:pos:R:3 atomization_energy=-1441.33 smiles=C.C.C.O.C.C.N.H.H.H.H.H.H.H pbc="F F F"
C        0.92828966       0.05372998       0.07175997
C        2.26955917      -0.04368998       0.03661999
C        2.80484890      -1.43650948       0.13340995
O        4.00615840      -1.67448940       0.16699994
C        3.19920884       1.09283961      -0.05281998
C        3.89016853       1.36243941      -1.36582948
N        2.83917882       2.24743906      -0.88024964
H        0.45311982       1.02959959       0.01217999
H        0.26839990      -0.80378967       0.14690994
H        2.05572925      -2.24498917       0.17968993
H        3.75152840       1.30405954       0.85757963
H        3.64174866       0.75475969      -2.22745922
H        4.90430829       1.74175927      -1.34376942
H        3.23826871       3.10241886      -0.48944981
