16
Properties=species:S:1:pos:R:3 atomization_energy=-1498.91 smiles=C.C.O.N.C.C.O.H.H.H.H.H.H.H.H.H pbc="F F F"
C        1.16085954      -0.38973985       0.46952980
C        2.55050909      -0.24888990      -0.11847995
O        3.08106886       1.01538962       0.28014990
N        4.46904848       1.00470958       0.08036996
C        4.94301792       2.15564927       0.44006981
C        6.42955737       2.42346913       0.39998983
O        7.14083730       1.47035946      -0.36410987
H        0.71366969      -1.34748941       0.19054992
H        0.51019980       0.42006985       0.12460995
H        1.19950949      -0.32327987       1.56187938
H        2.50931903      -0.28909989      -1.21227947
H        3.18988873      -1.06120963       0.24686991
H        4.29880815       2.96133894       0.83525967
H        6.80681733       2.41907907       1.42670944
H        6.59661732       3.41693867      -0.02530999
H        6.61647731       0.64592972      -0.31675988
