18
Properties=species:S:1:pos:R:3 atomization_energy=-1746.49 smiles=C.C.N.C.C.C.O.H.H.H.H.H.H.H.H.H.H.H pbc="F F F"
C        1.66949929      -0.18559992       1.09099961
C        2.09783917       0.28179989      -0.29061988
N        2.86287878       1.52189939      -0.23031991
C        2.15382921       2.79493884      -0.23960991
C        1.86320921       3.26767867      -1.65429936
C        4.24047825       1.47602947      -0.13541994
O        4.92280821       0.46090982      -0.08583997
H        1.11150960      -1.12407960       1.01870960
H        1.02823959       0.55618976       1.57767936
H        2.53771892      -0.35123987       1.73702932
H        1.22437952       0.43484983      -0.93282961
H        2.71297887      -0.49734980      -0.75569969
H        2.76986898       3.54690869       0.26636989
H        1.22603948       2.68968895       0.33161986
H        2.78776885       3.37148876      -2.23176903
H        1.35961948       4.23911818      -1.63458939
H        1.21726958       2.55961900      -2.18343902
H        4.69990836       2.47814906      -0.10857996
