14
Properties=species:S:1:pos:R:3 atomization_energy=-1376.97 smiles=C.C.N.O.C.C.O.H.H.H.H.H.H.H pbc="F F F"
C        1.10179951       0.00148000       0.14217994
C        2.57446894       0.01745999      -0.12137995
N        3.18753877       1.11752959      -0.43266982
O        4.57750802       1.01458960      -0.66719974
C        5.19121801       0.03814998       0.16816994
C        4.54668828      -1.27999951      -0.17604993
O        3.13481870      -1.20664958       0.05311998
H        0.71782969      -1.02170957       0.13918994
H        0.58482979       0.56989979      -0.63521978
H        0.90554963       0.45598983       1.11623954
H        6.26371770       0.02103999      -0.04294998
H        5.04004787       0.31484989       1.21756947
H        4.95146799      -2.08359924       0.44625981
H        4.69815820      -1.54312940      -1.22861956
