15
Properties=species:S:1:pos:R:3 atomization_energy=-1494.99 smiles=C.C.C.N.N.C.O.H.H.H.H.H.H.H.H pbc="F F F"
C        1.67901937      -0.09233996      -1.71193927
C        2.15930909      -0.05890998      -0.27223988
C        3.16355872       1.04977960      -0.06992997
N        2.83022888       2.21262921       0.36943986
N        4.47838827       0.88561963      -0.37865986
C        5.14419810      -0.20835992      -0.87428964
O        6.34922772      -0.22185991      -1.08993956
H        0.96073966      -0.90568962      -1.85513928
H        2.50843890      -0.24055991      -2.41056895
H        1.18606957       0.84884967      -1.97910924
H        2.60187893      -1.02068958       0.00345000
H        1.30753944       0.10328996       0.39726986
H        1.82264923       2.25799912       0.55958979
H        5.05495812       1.69847929      -0.20463992
H        4.50658831      -1.08284956      -1.06592961
