17
Properties=species:S:1:pos:R:3 atomization_energy=-1597.85 smiles=C.C.N.N.C.C.O.H.H.H.H.H.H.H.H.H.H pbc="F F F"
C        3.70989854      -0.56359978       1.89021925
C        2.71760890      -0.34715987       0.75869972
N        2.65274891       1.04846962       0.33499987
N        2.00488917       1.97362924       1.19939948
C        0.59858973       2.12442908       0.83460967
C        3.50822858       1.55692940      -0.63517972
O        3.65974846       2.74661892      -0.89246966
H        3.74891854      -1.62259937       2.16199919
H        3.42287855       0.00503000       2.78057892
H        4.71592837      -0.24479991       1.59915931
H        1.71494933      -0.66784974       1.06212963
H        3.01451876      -0.95671964      -0.10199996
H        2.46474901       2.88248895       1.05030962
H        0.05290998       1.18575959       0.97546962
H        0.48358979       2.45054906      -0.20465992
H        0.13448994       2.87610876       1.48040944
H        4.04612842       0.76581969      -1.18401951
