13
Properties=species:S:1:pos:R:3 atomization_energy=-1311.11 smiles=C.C.C.N.O.C.N.H.H.H.H.H.H pbc="F F F"
C        0.99706961      -0.04773998      -0.01243999
C        2.51999896       0.00000000       0.00000000
C        3.14131875      -0.72502971      -1.16894953
N        2.46707903      -1.06274961      -2.22258922
O        3.33137869      -1.69227938      -3.12668884
C        3.00201878       1.36116943       0.00000000
N        3.38622869       2.44615901       0.00000000
H        0.58310978       0.43447982       0.88096967
H        0.63775974      -1.08265955      -0.03334999
H        0.58034978       0.46684982      -0.88637965
H        2.87580899      -0.51245980       0.90194963
H        4.22579837      -0.93773966      -1.09666962
H        2.75275889      -1.85030928      -3.89812857
