16
Properties=species:S:1:pos:R:3 atomization_energy=-1497.64 smiles=C.C.O.C.O.N.C.H.H.H.H.H.H.H.H.H pbc="F F F"
C        0.49344979      -0.52050980       0.35024985
C        1.99271924      -0.42723984       0.12203995
O        2.29101919      -1.10942950      -1.09999951
C        2.46326909       1.03040958       0.04551999
O        3.89832842       1.08671956       0.03264999
N        4.37189842       0.72896973      -1.24154952
C        5.65367762       0.87806962      -1.25971952
H        0.20163993      -0.03928998       1.28860955
H        0.17596994      -1.56856944       0.38202984
H       -0.05783998      -0.05059998      -0.47208983
H        2.52952900      -0.95161964       0.91996961
H        3.14991871      -0.73625971      -1.39643940
H        2.13223924       1.58453936       0.92984964
H        2.07357916       1.53833940      -0.84500969
H        6.21960767       0.64732972      -2.17585924
H        6.23022780       1.23096952      -0.38846984
