9
Properties=species:S:1:pos:R:3 atomization_energy=-1033.13 smiles=C.C.C.N.O.C.N.H.H pbc="F F F"
C        1.00451963      -0.00045000       0.00018000
C        2.20580919       0.00172000       0.00045000
C        3.62557852       0.00098000       0.00079000
N        4.32130853       1.14118956       0.00181000
O        5.64688789       0.68328970       0.00171000
C        5.57668782      -0.67539974       0.00065000
N        4.35573812      -1.15170950      -0.00001000
H       -0.06031998      -0.00180000      -0.00029000
H        6.51451731      -1.21010955       0.00048000
