14
Properties=species:S:1:pos:R:3 atomization_energy=-1384.49 smiles=C.C.C.O.C.N.O.H.H.H.H.H.H.H pbc="F F F"
C        0.86974963       0.01897999      -0.03330998
C        2.39104911      -0.00512000      -0.09086997
C        3.00804873      -0.03408999       1.30031949
O        2.81559896      -1.14138953      -0.82489964
C        3.42450861      -0.58194975      -1.88404925
N        3.49055858       0.69645976      -1.94786925
O        2.84745882       1.16338953      -0.78244971
H        0.44753983       0.04466998      -1.04525958
H        0.50497979       0.90778964       0.49161979
H        0.47665980      -0.87726967       0.45808983
H        4.10271850      -0.04421998       1.23646946
H        2.70772887      -0.93244966       1.84949929
H        2.72647885       0.85194968       1.87878927
H        3.81817842      -1.30192949      -2.61262900
