16
Properties=species:S:1:pos:R:3 atomization_energy=-1609.47 smiles=C.C.C.O.C.C.N.H.H.H.H.H.H.H.H.H pbc="F F F"
C        0.90195965       0.22165992       0.10902996
C        2.29081909      -0.23453990      -0.30717987
C        3.35177866       0.81252967      -0.01966999
O        3.09466876       1.89434928       0.50842979
C        4.77108798       0.53252979      -0.37937986
C        5.20519817      -0.60199974      -0.93806964
N        6.49855735      -0.89080964      -1.28994943
H        0.16414994      -0.55644978      -0.10986996
H        0.60957977       1.13091955      -0.42655984
H        0.86358966       0.43707981       1.18206949
H        2.28695918      -0.44584984      -1.38195950
H        2.54261894      -1.14887961       0.23988990
H        5.45442778       1.34515951      -0.15449994
H        4.53004805      -1.41966940      -1.17900959
H        7.20457719      -0.29496988      -0.86123964
H        6.73914714      -1.87945921      -1.24976947
