12
Properties=species:S:1:pos:R:3 atomization_energy=-1314.58 smiles=C.C.C.C.C.N.O.H.H.H.H.H pbc="F F F"
C        2.78521879      -1.09145961       0.41119983
C        2.19638917       0.08277997       0.15337993
C        2.93845880       1.29432952       0.11844995
C        2.48871896       2.58058899      -0.13052995
C        3.62299868       3.40164865      -0.04609998
N        4.71930809       2.70105899       0.23526991
O        4.29748845       1.38823940       0.33857988
H        2.20297905      -2.00645917       0.43384982
H        3.85088838      -1.17813956       0.60524977
H        1.12837958       0.12136996      -0.03463999
H        1.47279938       2.87618875      -0.34399986
H        3.70317845       4.47116806      -0.17537994
