16
Properties=species:S:1:pos:R:3 atomization_energy=-1607.6 smiles=C.C.C.C.N.C.O.H.H.H.H.H.H.H.H.H pbc="F F F"
C        0.48062982      -0.09765996      -0.11584996
C        1.80411928      -0.79323970       0.04043998
C        1.88500924      -2.08956914       0.38561985
C        3.02584869       0.05633998      -0.17758993
N        3.25755868       0.14303995      -1.59679938
C        4.02885837       1.13995957      -2.12998920
O        4.51756825       2.07452919      -1.51313946
H        0.39640985       0.72272971       0.60440976
H       -0.36239986      -0.77613972       0.05270998
H        0.37906987       0.31344986      -1.12528954
H        0.99564962      -2.69005887       0.55366979
H        2.84322899      -2.58559902       0.51051979
H        3.91795853      -0.39010983       0.27618990
H        2.90216878       1.05567960       0.25386989
H        3.02945879      -0.65613974      -2.17275910
H        4.16986839       1.01126962      -3.21636863
