18
Properties=species:S:1:pos:R:3 atomization_energy=-1714.85 smiles=C.C.O.C.C.C.N.H.H.H.H.H.H.H.H.H.H.H pbc="F F F"
C        0.91735962      -0.20881992      -0.09176996
C        2.40238912      -0.15002993      -0.12393995
O        2.98079873      -0.33831989      -1.42178948
C        3.11437886       0.96875962      -0.84289970
C        4.51684810       1.34868950      -0.48632980
C        4.54960826       2.19594910       0.78810968
N        5.90847769       2.61817903       1.10705961
H        0.53382980       0.43934982       0.70205974
H        0.58536978      -1.23113947       0.11215996
H        0.47206980       0.11119996      -1.03890961
H        2.87287892      -0.62639973       0.72392974
H        2.54162904       1.77877929      -1.27368946
H        4.94951798       1.91301927      -1.32305945
H        5.13763799       0.45296981      -0.35293986
H        4.14219825       1.62239939       1.62804934
H        3.91747834       3.08202873       0.66520973
H        6.50193759       1.80045934       1.24207954
H        5.90778781       3.11991879       1.99431927
