14
Properties=species:S:1:pos:R:3 atomization_energy=-1441.36 smiles=C.C.C.O.C.C.N.H.H.H.H.H.H.H pbc="F F F"
C        0.95094964      -0.09058996      -0.25136991
C        2.24589908      -0.21923992       0.06255998
C        3.18057872       0.92722962      -0.08360997
O        2.83902893       2.03115925      -0.48880980
C        4.60766817       0.64256975       0.21662992
C        5.29443815       1.43134944       1.30304946
N        4.91692788       0.03998999       1.52243938
H        0.26656990      -0.92479961      -0.14200995
H        0.54583976       0.84885969      -0.61853973
H        2.64835885      -1.15354950       0.43416984
H        5.20910780       0.32792986      -0.62813974
H        4.71953822       2.17688926       1.84012922
H        6.35030770       1.64542929       1.19659948
H        5.73679755      -0.56624976       1.45601948
