15
Properties=species:S:1:pos:R:3 atomization_energy=-1531.9 smiles=C.C.C.N.C.N.C.H.H.H.H.H.H.H.H pbc="F F F"
C        1.83141925      -0.34339988       0.18012993
C        0.96767965      -1.53687941       0.63715976
C       -0.12873995      -1.08949963      -0.35403987
N       -1.39731941      -0.77196969       0.32087988
C       -1.30758953       0.48068981       0.63179975
N       -0.15934993       1.16133960       0.34421986
C        0.60089976       0.27897990      -0.49617980
H        2.61437892      -0.62582978      -0.53271979
H        2.28993921       0.23926992       0.98402964
H        1.40069939      -2.52133909       0.43466983
H        0.68498972      -1.49293946       1.69599938
H       -0.22090991      -1.67562930      -1.27150944
H       -2.10498923       1.06463957       1.11925957
H       -0.25618991       2.12602911       0.05201998
H        0.73108970       0.65987973      -1.51193937
