12
Properties=species:S:1:pos:R:3 atomization_energy=-1314.33 smiles=C.C.C.N.O.C.C.H.H.H.H.H pbc="F F F"
C        2.75299886      -1.19029953       0.36277986
C        2.28736922       0.04174999       0.11322996
C        3.05116887       1.24805954       0.02032999
N        2.48760896       2.43804908      -0.23473991
O        3.51906873       3.35771879      -0.24981990
C        4.68936798       2.72308903      -0.00591000
C        4.45330806       1.38566940       0.17286993
H        2.06902913      -2.03248916       0.40892983
H        3.80421845      -1.39939950       0.52583979
H        1.21483950       0.15496993      -0.03753999
H        5.56922790       3.34841862       0.00597000
H        5.18819811       0.62436972       0.38247984
