12
Properties=species:S:1:pos:R:3 atomization_energy=-1285.86 smiles=C.C.C.O.C.C.N.H.H.H.H.H pbc="F F F"
C        0.99999962       0.00000000       0.00000000
C        2.19015911       0.00000000       0.00000000
C        3.63415853       0.00000000       0.00000000
O        4.17053833       0.79570971       1.06357953
C        3.83937854       2.19267914       0.99493962
C        4.39215810       2.87486880      -0.18664992
N        4.80848802       3.41165863      -1.12753957
H       -0.06608997      -0.00596000      -0.00067000
H        4.04170834       0.33581988      -0.95918964
H        4.00579832      -1.01834959       0.15540994
H        4.25856838       2.65188897       1.89672927
H        2.75356888       2.32814898       1.05958954
