14
Properties=species:S:1:pos:R:3 atomization_energy=-1451.49 smiles=C.C.O.C.C.C.N.H.H.H.H.H.H.H pbc="F F F"
C        1.01003963      -0.04685998      -0.06127997
C        2.49166897       0.07917997      -0.03075999
O        3.14721876      -0.37319985      -1.22158949
C        3.21479862       1.03454958      -0.95079963
C        4.57199812       1.54400941      -0.58922976
C        5.16088780       1.99949925      -1.85315923
N        5.63221785       2.38808901      -2.83919900
H        0.56049976       0.63687974       0.66515977
H        0.71289970      -1.06697956       0.20060993
H        0.59754975       0.18547993      -1.04858960
H        2.92525885      -0.18948992       0.92301967
H        2.61944901       1.71397937      -1.54974944
H        5.19128816       0.76838968      -0.12675995
H        4.48201831       2.37579896       0.11632995
