13
Properties=species:S:1:pos:R:3 atomization_energy=-1320.28 smiles=C.C.N.N.C.O.C.H.H.H.H.H.H pbc="F F F"
C        0.99596964       0.05947998       0.00669000
C        2.49878900       0.05580998      -0.00174000
N        3.12596868       1.18668955       0.02367999
N        4.52050841       1.15567955       0.01357999
C        5.15284802       0.03228999      -0.00980000
O        4.62367808      -1.20733958      -0.03280998
C        3.21151882      -1.26769949      -0.04688998
H        0.60766975      -0.96238965       0.00810000
H        0.62956977       0.57986978      -0.88266962
H        0.63863975       0.57855974       0.90051966
H        6.25141756      -0.01551999      -0.01291999
H        2.88786891      -1.86329929       0.81306966
H        2.90168884      -1.79564928      -0.95480962
