15
Properties=species:S:1:pos:R:3 atomization_energy=-1450.2 smiles=C.C.N.N.C.C.O.H.H.H.H.H.H.H.H pbc="F F F"
C        1.56762938       2.67439894      -1.25029948
C        2.84623879       1.96869919      -0.92816962
N        3.93017843       2.63455886      -0.69839974
N        4.99150792       1.77636928      -0.42983983
C        6.07617754       2.45232901      -0.21732991
C        7.36754734       1.74794934       0.12980994
O        7.36701695       0.38082984      -0.23124991
H        1.21396946       2.33548904      -2.22731917
H        1.71099933       3.75746853      -1.26693947
H        0.81966970       2.41344905      -0.49756980
H        2.81541880       0.86484968      -0.89597966
H        6.09611777       3.55669864      -0.22668991
H        7.53307715       1.83899929       1.20706946
H        8.18882654       2.24938907      -0.38912984
H        6.43915757       0.08439996      -0.15238994
