17
Properties=species:S:1:pos:R:3 atomization_energy=-1616.39 smiles=C.C.N.C.C.C.H.H.H.H.H.H.H.H.H.H.H pbc="F F F"
C        1.15766956      -0.23783990      -0.01979999
C        2.67507897      -0.25581989      -0.11252995
N        3.22603872       0.95243959       0.49841981
C        4.68777829       0.99976962       0.41717984
C        5.33409806       1.70377938      -0.74176968
C        5.37453768       2.31977915       0.62586977
H        0.74126969      -1.14491952      -0.47072983
H        0.73872972       0.62473977      -0.54943977
H        0.82254969      -0.19655993       1.02245963
H        2.96893891      -0.31619986      -1.16637954
H        3.05703885      -1.14783950       0.39721983
H        2.92030887       1.01295961       1.46930939
H        5.20494786       0.12915995       0.81660968
H        4.69472800       2.16479906      -1.48517938
H        6.25126768       1.28604952      -1.14020950
H        6.31943749       2.32110919       1.15578957
H        4.76445823       3.19899865       0.80089966
