16
Properties=species:S:1:pos:R:3 atomization_energy=-1561.99 smiles=C.C.O.C.N.C.C.H.H.H.H.H.H.H.H.H pbc="F F F"
C        0.95210961      -0.11029996       0.02645999
C        2.47625910      -0.03723998      -0.02078999
O        2.88584875      -0.73212974      -1.20825958
C        3.01963882       1.42623947      -0.00355000
N        2.54125912       2.23144908       1.12056955
C        4.49496845       1.42653950       0.03761999
C        5.69669757       1.42966941       0.07123997
H        0.55404980       0.26628990       0.97281963
H        0.61618978      -1.14622950      -0.09480996
H        0.50855980       0.46175983      -0.79588969
H        2.88279882      -0.59947977       0.82869969
H        2.68993901      -0.16649993      -1.97474921
H        2.71231902       1.92222923      -0.93269966
H        2.82662887       1.78759928       1.99239928
H        1.52540944       2.26268920       1.12600956
H        6.76118726       1.43339950       0.10197996
