14
Properties=species:S:1:pos:R:3 atomization_energy=-1396.43 smiles=C.C.C.C.O.N.C.H.H.H.H.H.H.H pbc="F F F"
C        0.99999962       0.00000000       0.00000000
C        2.44399905       0.00000000       0.00000000
C        3.63415853       0.00000000       0.00000000
C        5.07815797       0.00000000       0.00000000
O        5.55072798       1.34525943       0.12243995
N        6.95678739       1.34065944       0.13098995
C        7.36543735       2.55869900       0.24589990
H        0.60596979       1.02086963       0.01203000
H        0.60591977      -0.52081979       0.87807966
H        0.60591977      -0.49999981      -0.89009964
H        5.46383771      -0.42858985      -0.93179965
H        5.46312765      -0.58978974       0.83951966
H        8.44405658       2.77647879       0.27320990
H        6.67837719       3.41867874       0.32064988
