20
Properties=species:S:1:pos:R:3 atomization_energy=-1860.48 smiles=C.C.N.C.C.C.O.H.H.H.H.H.H.H.H.H.H.H.H.H pbc="F F F"
C        1.80319928       0.75587973      -1.09881960
C        3.29238872       1.00852961      -0.92062964
N        3.49877853       2.29734917      -0.25670990
C        4.93709823       2.56926890      -0.08899996
C        5.19514782       3.96234839       0.52041978
C        4.78761820       5.10363787      -0.40429984
O        4.48784816       4.08862833       1.75782937
H        1.64054933      -0.21399991      -1.57976942
H        1.34519950       1.52569937      -1.72900935
H        1.28238946       0.74563968      -0.13551994
H        3.77305856       1.00423961      -1.90547923
H        3.72668841       0.19715993      -0.32487987
H        3.07616884       2.25029923       0.67157976
H        5.45588776       2.49942891      -1.05247960
H        5.35934784       1.81135930       0.58226977
H        6.26302732       4.05310841       0.74820968
H        3.71048849       5.09617795      -0.60311978
H        5.32128771       5.05181811      -1.35784950
H        5.00865786       6.06759778       0.06699997
H        3.54506870       4.14921836       1.52207943
