18
Properties=species:S:1:pos:R:3 atomization_energy=-1703.79 smiles=C.C.N.C.C.O.C.H.H.H.H.H.H.H.H.H.H.H pbc="F F F"
C        0.87709966      -0.33306988       0.42433983
C        2.21504906      -0.35473987      -0.29878989
N        3.23882863       0.27996989       0.53093978
C        4.52859815       0.28140988      -0.18396992
C        5.60322802       0.91642965       0.70990970
O        6.29437746      -0.34778987       0.86523965
C        5.30049814      -1.02306957       0.05849998
H        0.10565996      -0.79835969      -0.19758991
H        0.56122976       0.69264974       0.64222973
H        0.92697962      -0.88561963       1.36854948
H        2.11176912       0.18077992      -1.24975950
H        2.48442908      -1.39353948      -0.52231980
H        3.26853862      -0.16538994       1.44967941
H        4.51672798       0.65265972      -1.21295951
H        5.28583769       1.31416945       1.67936936
H        6.23905737       1.65355940       0.20946992
H        5.75062783      -1.46118937      -0.83771965
H        4.79842808      -1.80996933       0.63040978
