18
Properties=species:S:1:pos:R:3 atomization_energy=-1712.22 smiles=C.C.C.C.O.C.N.H.H.H.H.H.H.H.H.H.H.H pbc="F F F"
C        0.58526980       0.55612976       0.35886987
C        1.88795925       0.16403993      -0.32262986
C        3.06684873       1.01828960       0.10547996
C        3.67513865       0.68214974       1.45145948
O        2.94970874       1.33021948       2.49122890
C        3.97552841       1.54989945      -0.98768964
N        3.05407875       2.44096906      -0.29526990
H       -0.23134991      -0.08091997       0.00505000
H        0.32209987       1.59570944       0.13944994
H        0.65104972       0.44553982       1.44460944
H        1.74216931       0.22863991      -1.40821949
H        2.10664919      -0.88930966      -0.10830996
H        4.71496800       1.02065962       1.51622938
H        3.66609863      -0.39645984       1.63660930
H        2.43773896       2.04731917       2.07569913
H        3.73642865       1.33954943      -2.02357922
H        5.03100785       1.69131939      -0.78743968
H        3.56956854       3.02718882       0.36578986
