12
Properties=species:S:1:pos:R:3 atomization_energy=-1312.81 smiles=C.C.C.C.O.N.C.H.H.H.H.H pbc="F F F"
C        2.67276887      -1.16748954       0.38315984
C        2.21372912       0.07166997       0.16329994
C        3.00835885       1.24725953       0.07171997
C        2.53112904       2.51413907      -0.15374994
O        3.56521861       3.39328867      -0.18057993
N        4.75355803       2.71113887       0.02918999
C        4.40149839       1.43045946       0.17779994
H        1.98432922      -2.00608926       0.43697982
H        3.72669850      -1.38910943       0.51463979
H        1.13733962       0.19114993       0.04448998
H        1.55292944       2.94429876      -0.30770990
H        5.17702791       0.69931974       0.35541987
