18
Properties=species:S:1:pos:R:3 atomization_energy=-1713.86 smiles=C.C.C.O.C.C.N.H.H.H.H.H.H.H.H.H.H.H pbc="F F F"
C        1.35278950      -0.07264997       1.15924954
C        2.27002901       0.17848994      -0.02820999
C        3.31521864       1.19647950       0.29609988
O        3.60953857       2.10917919      -0.77085969
C        2.96775875       2.66144904       0.38857985
C        3.81162841       3.58265848       1.20125953
N        3.39331870       4.95865792       0.95117964
H        0.62929977      -0.85840968       0.92306962
H        0.79754971       0.83327969       1.42155949
H        1.92449921      -0.38160987       2.03962925
H        1.66738930       0.49384980      -0.88888965
H        2.76307899      -0.75992971      -0.31073989
H        4.13525838       0.80606967       0.88216963
H        1.92569930       2.94704892       0.32846988
H        4.87426825       3.47239856       0.95966964
H        3.68379865       3.35627874       2.26431901
H        3.54082852       5.16686805      -0.03737998
H        4.00638852       5.59024760       1.46525947
