15
Properties=species:S:1:pos:R:3 atomization_energy=-1492.61 smiles=C.C.C.N.C.N.O.H.H.H.H.H.H.H.H pbc="F F F"
C        1.07590957      -0.07746997       0.13685995
C        2.58474892       0.00249000       0.00524000
C        3.19195886       1.19781950       0.73942969
N        4.42715846       0.62151977       1.19289955
C        4.28828846      -0.71909974       1.29094955
N        5.00894804      -1.53698943       1.95309919
O        3.18852867      -1.15360955       0.62401974
H        0.69747974      -0.97185964      -0.36965986
H        0.59340975       0.80267967      -0.29837988
H        0.77490967      -0.16296994       1.18680954
H        2.87408885      -0.00002000      -1.05246957
H        2.58638907       1.50453938       1.59920940
H        3.34322867       2.05817913       0.08213997
H        4.93734804       1.04961962       1.95479927
H        4.59567840      -2.46481916       1.81009928
