12
Properties=species:S:1:pos:R:3 atomization_energy=-1246.59 smiles=C.C.C.N.C.N.H.H.H.H.H.H pbc="F F F"
C        0.93361966       0.09380996      -0.01804999
C        2.43015893      -0.01123999      -0.01940999
C        3.07350876      -1.18859957      -0.10544996
N        2.54214910      -2.45185892      -0.19071993
C        3.19579883       1.19362954       0.05781997
N        3.81327840       2.17184919       0.12561995
H        0.60330978       1.13764960      -0.06133998
H        0.51818980      -0.34667987       0.89426967
H        0.50506981      -0.41831984      -0.88601964
H        4.16506829      -1.21265948      -0.12273995
H        1.57240942      -2.53897906       0.10332996
H        3.13762866      -3.18538866       0.19026992
