18
Properties=species:S:1:pos:R:3 atomization_energy=-1725.7 smiles=C.C.C.C.O.C.N.H.H.H.H.H.H.H.H.H.H.H pbc="F F F"
C        0.69747974       0.66556974       0.43425982
C        2.17492915       0.64496973       0.64890976
C        3.05548878       1.29277945      -0.13261995
C        4.54008831       1.26506944       0.06467998
O        5.12489779       0.78870966      -1.14832952
C        5.11488781       2.66588907       0.37373984
N        6.58787757       2.62497885       0.40719985
H        0.19582992       1.03900959       1.33277951
H        0.33477987      -0.34880986       0.23549991
H        0.40829982       1.30352952      -0.40678984
H        2.52980909       0.05096998       1.48762939
H        2.69920890       1.86666930      -0.98495961
H        4.82163801       0.56570977       0.86087969
H        6.03811741       1.13924951      -1.12719956
H        4.72965822       3.04346872       1.32680948
H        4.82585800       3.37054858      -0.41498985
H        6.88686741       2.06786916       1.20922954
H        6.93573741       3.56849866       0.58320977
