14
Properties=species:S:1:pos:R:3 atomization_energy=-1487.35 smiles=C.C.C.N.C.O.C.H.H.H.H.H.H.H pbc="F F F"
C        1.04355957      -0.01947999       0.11598995
C        2.38137901      -0.00427000       0.03465999
C        3.22490878       1.22865956      -0.02926999
N        4.41718835       0.74482970      -0.64280978
C        4.50698800      -0.62563977      -0.68790970
O        5.48452787      -1.23998948      -1.08649953
C        3.23608882      -1.23093950      -0.14525994
H        0.48849981      -0.95318965       0.10499996
H        0.46950981       0.89926968       0.19191992
H        3.47591858       1.60335936       0.96685963
H        2.79577885       2.02082919      -0.64748976
H        5.20540811       1.31736951      -0.91397964
H        2.81430879      -1.93042925      -0.87085964
H        3.44786868      -1.71504937       0.81157971
