13
Properties=species:S:1:pos:R:3 atomization_energy=-1338.49 smiles=C.C.N.C.N.C.O.H.H.H.H.H.H pbc="F F F"
C        1.29062947       0.21198993      -0.88477968
C        2.32854917      -0.17418993      -0.13770994
N        3.58919866       0.35465984      -0.17235993
C        4.72256822       0.04488998       0.54172979
N        4.85779809      -0.86203965       1.45432936
C        5.96760748       0.86356966       0.22471991
O        5.91373778       1.73679932      -0.62984973
H        0.32507987      -0.27366990      -0.78217971
H        1.37178942       1.01379962      -1.61123942
H        2.19126911      -0.98305962       0.57509977
H        3.72159864       1.11374954      -0.84348964
H        3.96580835      -1.34357941       1.58215937
H        6.86334710       0.60212975       0.80990965
