14
Properties=species:S:1:pos:R:3 atomization_energy=-1383.69 smiles=C.C.C.C.O.N.O.H.H.H.H.H.H.H pbc="F F F"
C        1.04450959      -0.08232997       0.46025981
C        2.31786900      -0.62893976      -0.11253995
C        2.54382912      -1.94643928      -0.25142990
C        3.30083878       0.39972983      -0.57088975
O        2.95374882       1.53924943      -0.87393966
N        4.61875813       0.02735999      -0.52973976
O        5.55919773       1.06151962      -0.74844971
H        1.25679954       0.55404980       1.32571953
H        0.37083986      -0.87953965       0.79260970
H        0.50882980       0.51217981      -0.28742987
H        1.80415928      -2.67419884       0.07143997
H        3.43976859      -2.34761911      -0.71358970
H        4.95066810      -0.79018971      -0.03271999
H        4.97860824       1.83579922      -0.92079965
