14
Properties=species:S:1:pos:R:3 atomization_energy=-1450.11 smiles=C.C.O.C.C.C.N.H.H.H.H.H.H.H pbc="F F F"
C        1.09219957      -0.04361999       0.54566981
C        2.51999896       0.00000000       0.00000000
O        2.45741903      -0.54697979      -1.32824953
C        3.55692852      -1.15627960      -1.85835927
C        4.77149828      -1.34080945      -1.32949945
C        3.00201878       1.36116943       0.00000000
N        3.38622869       2.44615901       0.00000000
H        1.04089962       0.34280987       1.56906944
H        0.71347975      -1.07170964       0.54195978
H        0.41006984       0.54539976      -0.07898997
H        3.12502875      -0.63874977       0.65353972
H        3.31751864      -1.51140935      -2.85836886
H        5.06257802      -0.99920963      -0.34337985
H        5.53318793      -1.85616929      -1.90578922
