18
Properties=species:S:1:pos:R:3 atomization_energy=-1802.8 smiles=C.C.C.C.C.C.N.H.H.H.H.H.H.H.H.H.H.H pbc="F F F"
C       -1.25201950      -0.77253971      -0.52003980
C       -1.22767950       0.76315968      -0.53572979
C        0.01474999       1.08990954       0.30822989
C       -0.00305000      -0.01152999       1.35798942
C       -0.00071000      -1.11480959       0.30795989
C        1.24133945      -0.73459969      -0.50273981
N        1.20981950       0.74602972      -0.49631981
H       -1.21920950      -1.19620950      -1.52863941
H       -2.16038906      -1.13262960      -0.02388999
H       -2.13500908       1.16022959      -0.06559997
H       -1.16774957       1.16577949      -1.55254944
H        0.03488998       2.11314912       0.68921974
H       -0.90554963      -0.00659000       1.97824917
H        0.88437967      -0.01975999       2.00039919
H        0.01220000      -2.13608906       0.69303972
H        2.15379918      -1.08750962      -0.00901000
H        1.21955948      -1.12567951      -1.52444944
H        2.04176915       1.08378962      -0.01158000
