10
Properties=species:S:1:pos:R:3 atomization_energy=-1144.34 smiles=C.C.O.C.N.C.O.H.H.H pbc="F F F"
C        1.13909950      -0.01810999       0.05350998
C        2.46109904      -0.02338999      -0.14377994
O        3.18349870      -1.15963951      -0.43355982
C        4.40823816      -0.57060979      -0.52093980
N        4.56233837       0.69419975      -0.34073986
C        3.31647878       1.17463960      -0.07849997
O        2.97238878       2.31668910       0.15597994
H        0.61219979       0.90434967       0.27993989
H        0.56169978      -0.93346965      -0.00767000
H        5.20628774      -1.28978946      -0.75499972
