20
Properties=species:S:1:pos:R:3 atomization_energy=-1867.1 smiles=C.C.C.C.N.C.O.H.H.H.H.H.H.H.H.H.H.H.H.H pbc="F F F"
C        2.76214890      -0.95119964      -1.01566958
C        2.45061896       0.07596997       0.06663997
C        3.07277877       1.47386939      -0.15576993
C        2.52580888       2.14026918      -1.42842946
N        2.69868885       2.35051915       0.98162959
C        4.62099833       1.41119940      -0.20792992
O        5.16568815       2.73011898      -0.13873994
H        2.27894918      -1.90309925      -0.77229968
H        3.83643837      -1.13810960      -1.09478963
H        2.38919901      -0.63344974      -1.99287921
H        2.79470897      -0.33019987       1.02743957
H        1.35895951       0.16741993       0.14669993
H        2.85682889       1.61371932      -2.33014920
H        2.86748887       3.17809881      -1.52090937
H        1.42942944       2.15347922      -1.43224950
H        2.96574893       1.90057921       1.85856922
H        1.68222928       2.43928903       1.01801961
H        4.98063799       0.94735960      -1.13162961
H        5.02104783       0.84559964       0.64094972
H        4.52080818       3.22666879       0.40841984
