16
Properties=species:S:1:pos:R:3 atomization_energy=-1582.17 smiles=C.C.N.C.C.C.O.H.H.H.H.H.H.H.H.H pbc="F F F"
C        0.94904965      -0.01004000       0.06196998
C        2.46369906       0.01762999      -0.00295000
N        3.19589876       0.99560963       0.84921965
C        2.42129908       1.50842944       1.98069918
C        4.16176831      -0.01985000       1.33896945
C        3.21906882      -1.08319954       0.75412968
O        3.12278881      -2.29002904       0.84627967
H        0.56250977      -0.81038965      -0.57856977
H        0.52479978       0.93107963      -0.30284987
H        0.56728981      -0.19812992       1.07004955
H        2.79267896       0.06934997      -1.05027959
H        1.61474934       2.16050917       1.62935932
H        3.06655880       2.12520904       2.61667892
H        1.98910925       0.72302973       2.61189901
H        5.13302790       0.01341000       0.83604966
H        4.31128845      -0.08609997       2.42013911
