16
Properties=species:S:1:pos:R:3 atomization_energy=-1620.12 smiles=C.C.C.C.C.N.O.H.H.H.H.H.H.H.H.H pbc="F F F"
C        0.84345968      -0.13327995       0.18213992
C        2.33108914       0.01377000       0.22952991
C        3.05369874       1.13093961       0.01115999
C        2.52381900       2.49993913      -0.29476987
C        4.54299819       1.07647959       0.12412995
N        5.13626784      -0.02478999      -0.40995985
O        5.20215809       1.99781923       0.58730977
H        0.57674977      -0.91832964      -0.53295976
H        0.31949988       0.77633969      -0.11488995
H        0.47121982      -0.43106982       1.16720958
H        2.84778886      -0.90510963       0.50323981
H        1.44119944       2.52337893      -0.43661982
H        2.97685882       2.88309884      -1.21527957
H        2.76106892       3.19262880       0.52010979
H        4.62729803      -0.71238974      -0.94635961
H        6.14716741      -0.04410998      -0.42581985
