15
Properties=species:S:1:pos:R:3 atomization_energy=-1429.95 smiles=C.C.N.C.C.N.O.H.H.H.H.H.H.H.H pbc="F F F"
C        0.94085961       0.31057988      -0.30108989
C        2.35767905       0.09186996       0.10125996
N        3.12395886      -0.99228964      -0.49985980
C        3.48778874       0.39053984      -0.85315967
C        4.80602829       0.81165970      -0.34053986
N        5.48639764       1.65225939      -1.04846962
O        6.69635730       1.91872927      -0.39280984
H        0.63194976       1.32979948      -0.04779998
H        0.28460988      -0.38505986       0.23292990
H        0.78552966       0.16725993      -1.37594947
H        2.51437903       0.25387989       1.16142955
H        2.62191908      -1.42800945      -1.27507955
H        3.24644878       0.69866974      -1.86392923
H        5.16464804       0.40372986       0.62153977
H        7.14847739       2.51235912      -1.02116958
