16
Properties=species:S:1:pos:R:3 atomization_energy=-1565.9 smiles=C.C.N.C.C.O.O.H.H.H.H.H.H.H.H.H pbc="F F F"
C        1.80695927      -0.66750973       0.35523986
C        1.94493917       0.19281992      -0.89788968
N        0.80276969      -0.05061998      -1.80353930
C        2.01246920       1.68108937      -0.54431978
C        2.35531899       2.55873887      -1.72708936
O        1.73095937       2.20991917      -2.87497882
O        3.06876872       3.54814865      -1.64388931
H        2.66926904      -0.52771979       1.01591958
H        1.75547928      -1.73117927       0.09787996
H        0.90448965      -0.41199985       0.92184967
H        2.86031888      -0.09457996      -1.42899947
H       -0.06855997       0.00762000      -1.26364945
H        0.83548967      -1.03231960      -2.10240915
H        2.79749899       1.83405927       0.20660992
H        1.06866955       2.03824925      -0.11583996
H        1.20192948       1.37921944      -2.75109881
