17
Properties=species:S:1:pos:R:3 atomization_energy=-1642.63 smiles=C.C.C.N.C.C.N.H.H.H.H.H.H.H.H.H.H pbc="F F F"
C       -1.67307937       0.75464968       0.52364978
C       -1.08115957      -0.36125985      -0.29285988
C       -0.25952991      -1.44353943       0.34919987
N        1.09035957      -1.40694951      -0.20434992
C        1.70804933      -0.07668997      -0.06244998
C        0.76049972       1.09661953       0.29706987
N       -0.54933978       1.01741962      -0.37252985
H       -2.62656904       1.15998950       0.20601993
H       -1.50834945       0.78176967       1.59320933
H       -1.59551943      -0.69592973      -1.18485952
H       -0.22909991      -1.33734948       1.44056949
H       -0.71246973      -2.41741898       0.13470994
H        1.67598938      -2.11450918       0.23324990
H        2.49283903      -0.12850995       0.70104972
H        2.20767922       0.14857995      -1.01099962
H        0.65450975       1.14698952       1.38967945
H        1.23978951       2.03750917       0.00128000
