20
Properties=species:S:1:pos:R:3 atomization_energy=-1865.59 smiles=C.C.C.C.N.C.O.H.H.H.H.H.H.H.H.H.H.H.H.H pbc="F F F"
C        2.82620899      -0.86885966      -0.56074976
C        2.79740891      -0.02454999       0.70597971
C        3.81262839       1.13815956       0.68779975
C        3.59555867       2.08338917       1.89129923
N        3.85136856       1.44866945       3.18592864
C        5.27340785       0.65951972       0.62041973
O        5.59894798      -0.19554993       1.70806939
H        2.01551926      -1.60449939      -0.53900978
H        3.76726857      -1.41848950      -0.65566971
H        2.69456904      -0.24711991      -1.45200943
H        2.96636891      -0.68026974       1.56755936
H        1.78668925       0.38732984       0.81712967
H        3.62480865       1.73417937      -0.21588991
H        2.57102891       2.47249911       1.87933923
H        4.26423826       2.94666891       1.79320924
H        3.12708878       0.74949972       3.36378862
H        3.73116855       2.14645912       3.92275837
H        5.95937744       1.51333943       0.64170974
H        5.46761763       0.11434996      -0.30774989
H        5.25193800       0.25586990       2.50930894
