20
Properties=species:S:1:pos:R:3 atomization_energy=-1868.2 smiles=C.C.C.O.C.C.N.H.H.H.H.H.H.H.H.H.H.H.H.H pbc="F F F"
C        0.72409974       0.06077997       0.01167999
C        2.23202919      -0.08521997       0.17786993
C        2.96891872       1.23527947      -0.06932998
O        2.57216895       2.19441921       0.90860966
C        4.49983844       1.08696963      -0.07156997
C        5.11248814       0.54667977       1.22529951
N        4.80968811       1.40435945       2.37118912
H        0.23268990      -0.90448965       0.16902993
H        0.47275980       0.40913983      -0.99486960
H        0.31134987       0.77020968       0.73541970
H        2.59456890      -0.85021964      -0.51861981
H        2.41984893      -0.44294983       1.19671947
H        2.66640887       1.63552933      -1.04400960
H        3.08063888       1.97578919       1.72112930
H        4.94370830       2.07005914      -0.27747988
H        4.79382807       0.42646982      -0.89652967
H        6.19997731       0.47951982       1.10930952
H        4.74944806      -0.46592982       1.42683939
H        5.25675803       2.31426899       2.23093912
H        5.25524808       1.01271957       3.20339880
