15
Properties=species:S:1:pos:R:3 atomization_energy=-1446.21 smiles=C.C.N.N.C.C.O.H.H.H.H.H.H.H.H pbc="F F F"
C        3.03087891       0.29606989      -2.81235878
C        3.66578851       0.88520965      -1.59213933
N        4.76590813       1.56114939      -1.68462933
N        5.20865814       2.03942916      -0.49689980
C        6.47981722       2.77150887      -0.52502978
C        6.31802746       4.03740836      -1.32990949
O        6.36493736       5.16400812      -0.84080970
H        2.01770924       0.69467975      -2.91044877
H        2.97036886      -0.78849966      -2.69198895
H        3.60775863       0.53524979      -3.70926847
H        3.15210869       0.70765973      -0.62961973
H        4.50678815       2.61511901      -0.02027999
H        7.27614691       2.16592925      -0.96857965
H        6.77783709       3.03072877       0.49584981
H        6.14591736       3.89760852      -2.41148894
