16
Properties=species:S:1:pos:R:3 atomization_energy=-1561.0 smiles=C.C.O.C.N.C.C.H.H.H.H.H.H.H.H.H pbc="F F F"
C        0.98956964      -0.01561999       0.04114998
C        2.51999896       0.00000000       0.00000000
O        2.97422878      -0.67175974       1.17908958
C        3.01242870      -0.78415969      -1.25710953
N        4.47468808      -0.88744966      -1.41161940
C        3.00201878       1.36116943       0.00000000
C        3.39929870       2.48306901       0.00000000
H        0.55154976       0.47768982      -0.83465969
H        0.61299974       0.49216982       0.93861960
H        0.60931974      -1.04353957       0.08625997
H        2.94975895      -0.02786999       1.90549929
H        2.61027904      -0.31300989      -2.16271909
H        2.62476891      -1.80894928      -1.21644950
H        4.88980833       0.04059998      -1.34973945
H        4.69473810      -1.25565951      -2.33403915
H        3.75863859       3.48664871       0.00276000
