17
Properties=species:S:1:pos:R:3 atomization_energy=-1623.21 smiles=C.C.N.C.C.C.H.H.H.H.H.H.H.H.H.H.H pbc="F F F"
C        0.86114968      -0.29255989      -0.03102999
C        2.38021905      -0.12641995       0.05359998
N        3.02737882      -1.14220960      -0.78624969
C        2.84410887       1.28004947      -0.38336984
C        2.34579904       2.37792914       0.51783979
C        1.58529938       3.40101858       0.10795996
H        0.34946987       0.39520986       0.64958973
H        0.56268981      -1.30808952       0.25147991
H        0.49350982      -0.10228996      -1.04505961
H        2.69439896      -0.30128989       1.09023959
H        2.72886893      -1.02683959      -1.75406925
H        2.70992894      -2.06869921      -0.50407979
H        2.53719911       1.46694946      -1.42060946
H        3.94097845       1.31817949      -0.37236984
H        2.64690896       2.32805915       1.56241937
H        1.26887952       3.49984866      -0.92582962
H        1.26481951       4.16918836       0.80551966
