18
Properties=species:S:1:pos:R:3 atomization_energy=-1787.38 smiles=C.C.C.C.C.C.N.H.H.H.H.H.H.H.H.H.H.H pbc="F F F"
C        0.82352967      -1.19304956       0.51616980
C       -0.43212983      -1.52005939      -0.30664988
C       -1.55941940      -0.52900980      -0.19989993
C       -1.46143943       0.76224970       0.15000994
C       -0.18796993       1.53111945       0.38613984
C        1.00671958       1.06759954      -0.46141981
N        1.69475929      -0.14712994      -0.01910999
H        1.42819946      -2.10495921       0.59362978
H        0.54596977      -0.94267961       1.54760942
H       -0.81636965      -2.48036907       0.06206997
H       -0.17758993      -1.67577931      -1.36166942
H       -2.55247904      -0.93212964      -0.39303984
H       -2.37975905       1.34161943       0.24074990
H        0.05599998       1.53344935       1.45493938
H       -0.38938984       2.57616890       0.11656995
H        1.75368937       1.87024925      -0.46620982
H        0.69069973       0.94513965      -1.50571940
H        2.22885915      -0.51767981      -0.80454970
