13
Properties=species:S:1:pos:R:3 atomization_energy=-1352.96 smiles=C.C.C.N.N.C.O.H.H.H.H.H.H pbc="F F F"
C        0.96256962       0.02998999       0.01547999
C        2.43461914       0.05495998      -0.04237999
C        3.30886872       1.06218956      -0.15266994
N        4.62460818       0.65754977      -0.16634993
N        4.59832838      -0.71227972       0.11565995
C        3.28444861      -1.15589959       0.04437998
O        2.89143889      -2.30725898       0.03145999
H        0.54808980       1.04330957       0.01588999
H        0.62120978      -0.47236982       0.92596960
H        0.55266980      -0.50300981      -0.84763968
H        3.08517883       2.11937918      -0.20544992
H        5.21324804       1.20656947       0.46493980
H        5.35284779      -1.32029946      -0.17961992
