18
Properties=species:S:1:pos:R:3 atomization_energy=-1718.08 smiles=C.C.N.C.C.C.O.H.H.H.H.H.H.H.H.H.H.H pbc="F F F"
C        0.97818962       0.03343999       0.10556996
C        2.48632913      -0.06936997      -0.01723999
N        3.20168875       0.96254963       0.77297971
C        4.19539826      -0.05203998       1.20368948
C        5.49161787       0.06767998       0.41522985
C        3.18816884      -1.16901955       0.81967967
O        3.68547842      -2.32694914       0.11509996
H        0.49843980      -0.81403968      -0.39486984
H        0.61118977       0.94997962      -0.36824987
H        0.64916972       0.03479999       1.15006960
H        2.79091895      -0.06994997      -1.07267960
H        2.65450892       1.33811947       1.54951944
H        4.40470804      -0.01711999       2.28024919
H        5.32219812       0.07973997      -0.66728976
H        6.15321781      -0.77520969       0.64070975
H        6.02371787       0.98717961       0.68269975
H        2.59496909      -1.49571939       1.68441939
H        4.14416845      -1.97490919      -0.66713975
