14
Properties=species:S:1:pos:R:3 atomization_energy=-1435.28 smiles=C.C.C.N.C.C.O.H.H.H.H.H.H.H pbc="F F F"
C        2.03308921      -0.58122979      -1.25503953
C        2.15654909       0.31241988      -0.26429990
C        3.30086882       1.19634955      -0.03499998
N        3.68471866       2.11848920      -1.10388958
C        3.06717878       2.68026892       0.10050996
C        3.97053856       3.47824860       0.95468963
O        3.67855849       3.71456843       2.12185909
H        1.14933960      -1.20604954      -1.33658946
H        2.81467896      -0.71167974      -1.99762922
H        1.34616946       0.38144985       0.46061983
H        4.11887830       0.75790973       0.52893978
H        3.00702881       2.06889918      -1.86714923
H        2.06158914       3.06814874      -0.00775000
H        4.89806814       3.85829859       0.49489982
