10
Properties=species:S:1:pos:R:3 atomization_energy=-1178.4 smiles=C.C.C.C.O.C.N.H.H.H pbc="F F F"
C        0.96611961      -0.02706999      -0.00176000
C        2.16625904      -0.00728000       0.00030000
C        3.58601852       0.01493999       0.00298000
C        4.41171831       1.10854962       0.00082000
O        5.69810760       0.65227977       0.00518000
C        5.55800774      -0.70435974       0.00975000
N        4.31785815      -1.14132960       0.00863999
H       -0.09837996      -0.05380998      -0.00343000
H        4.27456820       2.17928918      -0.00321000
H        6.47035732      -1.28369944       0.01383999
