14
Properties=species:S:1:pos:R:3 atomization_energy=-1486.28 smiles=C.C.C.N.C.O.C.H.H.H.H.H.H.H pbc="F F F"
C        0.93861960       0.03099999      -0.00830000
C        2.42299903      -0.00311000      -0.00040000
C        3.28113878       1.07966956       0.00359000
N        4.56783818       0.60865977       0.01048000
C        4.55609822      -0.75849968       0.01089000
O        5.70073790      -1.42596948       0.01706999
C        3.24331862      -1.16860951       0.00420000
H        0.56386977       1.05921962       0.00151000
H        0.54083981      -0.48431982       0.87166968
H        0.55103980      -0.46397981      -0.90425965
H        3.08692875       2.14408922       0.00215000
H        5.40786812       1.16892959       0.01462999
H        5.47525772      -2.37317900       0.01623999
H        2.89764876      -2.19401902       0.00272000
