14
Properties=species:S:1:pos:R:3 atomization_energy=-1399.92 smiles=C.C.C.N.O.C.C.H.H.H.H.H.H.H pbc="F F F"
C        0.99659958      -0.05543997       0.02172999
C        2.51999896       0.00000000       0.00000000
C        3.03618871      -0.78741968      -1.18462952
N        2.90227879      -0.38012985      -2.40738906
O        3.46124854      -1.33304950      -3.26635873
C        3.00201878       1.36116943       0.00000000
C        3.39929870       2.48306901       0.00000000
H        0.59814979       0.43325983       0.91810961
H        0.64307977      -1.09262954       0.01566999
H        0.56076976       0.44575982      -0.85080965
H        2.89394883      -0.51220981       0.89528966
H        3.51145868      -1.75928936      -0.95666961
H        3.34558873      -0.91699967      -4.14106831
H        3.75423844       3.48787858      -0.00966000
