15
Properties=species:S:1:pos:R:3 atomization_energy=-1480.88 smiles=C.C.N.C.N.C.O.H.H.H.H.H.H.H.H pbc="F F F"
C        2.61968898      -1.10327956      -0.23744991
C        3.81514843      -0.29349989       0.23436991
N        3.65296857       1.07925952      -0.23320991
C        4.54333833       1.94013920       0.11356995
N        5.68144768       1.73179938       0.85624966
C        4.29920835       3.36235866      -0.38811985
O        5.19997795       4.18751846      -0.32911988
H        2.70442888      -2.14225906       0.09623996
H        2.55089894      -1.09787955      -1.33091945
H        1.68526937      -0.68973973       0.15747994
H        4.72806803      -0.73772973      -0.17644993
H        3.86232857      -0.33055987       1.32840951
H        6.08977770       0.80927971       0.79479968
H        6.36642763       2.48208896       0.76261969
H        3.29204883       3.54986854      -0.79109968
