14
Properties=species:S:1:pos:R:3 atomization_energy=-1471.71 smiles=C.C.N.C.C.C.O.H.H.H.H.H.H.H pbc="F F F"
C        1.20235957      -0.03628998       0.50479982
C        2.44823897       0.07391997       0.03513999
N        3.10364872       1.23974951      -0.15052994
C        2.63053897       2.58324906       0.10465996
C        4.01319844       3.06948887      -0.39644985
C        4.33214817       1.57121943      -0.60128974
O        5.26651769       0.91401964      -0.99452959
H        0.75021968      -1.01618957       0.62314977
H        0.60200977       0.82257965       0.78166968
H        3.01638879      -0.81589968      -0.23114991
H        2.42599900       2.79054878       1.15885956
H        1.78470933       2.88366885      -0.52020981
H        3.99833840       3.65081845      -1.32149942
H        4.63851819       3.55793860       0.35472986
