14
Properties=species:S:1:pos:R:3 atomization_energy=-1490.87 smiles=C.C.C.C.C.C.H.H.H.H.H.H.H.H pbc="F F F"
C        1.02529961       0.01707999      -0.14698995
C        2.35145909       0.00589000       0.00484000
C        3.23435883      -1.21185947       0.07542997
C        4.60338813      -0.66999973       0.50231981
C        4.44519813       0.81471966       0.41463983
C        3.18603866       1.16775953       0.14837994
H        0.46620982      -0.90909962      -0.23914991
H        0.46359983       0.94479964      -0.17715993
H        3.30714858      -1.68474931      -0.91171964
H        2.86186895      -1.95242925       0.79018971
H        5.39691795      -1.02967958      -0.16081994
H        4.84454817      -0.96777963       1.52807936
H        5.25597782       1.51110945       0.57809974
H        2.82874895       2.18529920       0.06655997
