14
Properties=species:S:1:pos:R:3 atomization_energy=-1361.9 smiles=C.C.C.O.C.N.O.H.H.H.H.H.H.H pbc="F F F"
C        0.01886000       0.43531983      -0.05100998
C        1.45198937       0.05763998      -0.22230991
C        2.46861901       0.91782965      -0.09931997
O        3.79430839       0.50657979      -0.25230991
C        4.68817799       1.44249945      -0.68671970
N        4.40371840       2.66156890      -1.00181962
O        5.57651775       3.31054874      -1.41057942
H       -0.43881983      -0.18341992       0.72682972
H       -0.52480981       0.27068990      -0.98632964
H       -0.10082996       1.48502937       0.23495991
H        1.66241938      -0.98053964      -0.46504982
H        2.35308914       1.96480925       0.15013993
H        5.69583763       0.99833960      -0.73812974
H        5.25176793       4.19985847      -1.64805934
