18
Properties=species:S:1:pos:R:3 atomization_energy=-1719.65 smiles=C.C.O.C.C.C.N.H.H.H.H.H.H.H.H.H.H.H pbc="F F F"
C        2.76848897      -1.56884940      -0.39292986
C        2.08430917      -0.23029992      -0.17071993
O        1.12303950      -0.36485986       0.87332964
C        3.04269886       0.89345963       0.20041992
C        4.02694847       0.60541977       1.30778950
C        3.43133871       1.89554924      -0.86546966
N        2.46235892       2.25588913       0.16391994
H        3.55535851      -1.49381946      -1.15027954
H        2.03807918      -2.31758917      -0.71956970
H        3.20935861      -1.95517928       0.53289977
H        1.53200942       0.02715999      -1.08245958
H        0.78713966       0.54043981       1.01567961
H        4.57806820       1.50218941       1.61192941
H        4.76521825      -0.13316995       0.98145964
H        3.51189874       0.21633991       2.19154920
H        3.03562879       1.77761933      -1.86758930
H        4.39985824       2.37886908      -0.81264966
H        2.89100892       2.85696893       0.87148965
