16
Properties=species:S:1:pos:R:3 atomization_energy=-1581.83 smiles=C.N.C.C.C.C.O.H.H.H.H.H.H.H.H.H pbc="F F F"
C        1.07240961       0.09026996      -0.18454992
N        2.51882889       0.07742997       0.01480000
C        3.22922869      -0.72742970      -0.97103963
C        3.25263872       0.78478970      -1.04008957
C        4.48208845       1.50248944      -0.61778975
C        4.37708837       2.36909906       0.60467975
O        5.51060781       1.39538945      -1.27702944
H        0.65042974       0.99841959       0.25824989
H        0.62425977      -0.76767968       0.32721986
H        0.76029969       0.05408998      -1.23554946
H        2.66035898      -1.26862946      -1.71714928
H        4.11866836      -1.23799947      -0.61926973
H        2.69766893       1.25490945      -1.84337925
H        3.45799852       2.95995894       0.56756977
H        5.22695771       3.05678879       0.63607972
H        4.38905846       1.74660933       1.50256943
