20
Properties=species:S:1:pos:R:3 atomization_energy=-1866.44 smiles=C.C.C.O.C.C.N.H.H.H.H.H.H.H.H.H.H.H.H.H pbc="F F F"
C        0.97216963      -0.09253997       0.02409999
C        2.48257899      -0.15998994       0.21254991
C        3.15449877       1.20564947       0.00909000
O        2.64656907       2.13228920       0.97741963
C        4.69927804       1.12521951       0.13679994
C        5.35939780       2.43216900      -0.30890988
N        5.10557779       0.83636968       1.52573937
H        0.53363979      -1.08912958       0.13964994
H        0.71780969       0.27605989      -0.97500962
H        0.50764980       0.56600979       0.76366970
H        2.89785896      -0.88546968      -0.49636980
H        2.67843901      -0.53567977       1.22351957
H        2.89121886       1.59359932      -0.98191958
H        2.87355895       1.74209929       1.84171929
H        5.06418790       0.31679988      -0.50733981
H        5.04219824       3.28091875       0.30673987
H        5.10208805       2.65740897      -1.34954945
H        6.45085767       2.35989906      -0.24676991
H        5.00867805       1.69001938       2.07858920
H        6.10652744       0.63463973       1.53665938
