15
Properties=species:S:1:pos:R:3 atomization_energy=-1537.4 smiles=C.C.C.C.N.C.N.H.H.H.H.H.H.H.H pbc="F F F"
C       -1.46947946       0.68985972       0.14779994
C       -1.44705945      -0.78514971      -0.22816991
C       -0.26316989      -1.52453941       0.30833987
C        0.99016962      -1.07465952       0.43986984
N        1.56467937       0.10552995       0.07292997
C        0.90874963       1.12894960      -0.34545988
N       -0.41709985       1.42072944      -0.52031979
H       -2.43228911       1.11607957      -0.15677994
H       -1.39030939       0.82433966       1.23326952
H       -1.49110942      -0.91644965      -1.31692945
H       -2.34997916      -1.25090950       0.18300993
H       -0.46031981      -2.54480892       0.62952977
H        1.71436935      -1.77130928       0.86337966
H        1.52548943       1.99514918      -0.64680973
H       -0.62111976       2.40550895      -0.65140973
