15
Properties=species:S:1:pos:R:3 atomization_energy=-1459.54 smiles=C.C.N.C.C.C.H.H.H.H.H.H.H.H.H pbc="F F F"
C        1.24452955      -0.29437990      -0.13066995
C        2.75533898      -0.17594992      -0.00131000
N        3.15264868       1.22546946      -0.10320996
C        4.59932812       1.37308942       0.02615999
C        4.95676796       2.79575892      -0.04075998
C        5.25158776       3.95903856      -0.09553997
H        0.94216965      -1.34457953      -0.06585998
H        0.89726964       0.09738996      -1.09275962
H        0.73292970       0.25319991       0.66812977
H        3.22654868      -0.76290968      -0.79790967
H        3.06623885      -0.59667978       0.96192965
H        2.70046905       1.76830931       0.63121976
H        5.10794819       0.83388970      -0.78117972
H        4.94505827       0.95753965       0.97986964
H        5.50808804       4.99193789      -0.15082993
