18
Properties=species:S:1:pos:R:3 atomization_energy=-1724.52 smiles=C.C.C.N.C.C.O.H.H.H.H.H.H.H.H.H.H.H pbc="F F F"
C        2.01613923      -1.15277951      -0.54554977
C        3.10259877      -0.86369967       0.48303981
C        3.75342846       0.51468981       0.29854989
N        4.63626840       0.76967972       1.45702944
C        5.09298798       2.15406918       1.51154939
C        4.55490823       0.53020979      -1.00468958
O        5.76609776       0.33659986      -1.08312952
H        1.55404942      -2.12369909      -0.33942985
H        2.42192915      -1.18772953      -1.56091939
H        1.23161953      -0.39038986      -0.51174980
H        3.86077850      -1.65541933       0.42476983
H        2.64946886      -0.92690967       1.48062948
H        2.97940889       1.28921944       0.24185990
H        5.45855793       0.16566993       1.36356947
H        4.24990837       2.85191877       1.53565939
H        5.74179775       2.40783897       0.66765974
H        5.66977787       2.30599908       2.42932902
H        3.95516856       0.69269970      -1.91728922
