20
Properties=species:S:1:pos:R:3 atomization_energy=-1871.12 smiles=C.C.C.O.C.C.N.H.H.H.H.H.H.H.H.H.H.H.H.H pbc="F F F"
C        0.88587966      -0.70715974       0.01718999
C        2.38362905      -0.42235985       0.14103994
C        2.97485885      -1.25389950       1.28259953
O        3.01933879      -0.86172966      -1.06158964
C        2.68584897       1.07490958       0.37783984
C        2.17247927       2.03500919      -0.70228974
N        2.74221902       1.73476931      -2.01577916
H        0.45870981      -0.23520991      -0.87382964
H        0.33609987      -0.35907987       0.89763962
H        0.70438971      -1.78216924      -0.09927996
H        2.53204903      -0.98786962       2.24792908
H        4.05989839      -1.11150960       1.34680950
H        2.81554900      -2.32477909       1.11072952
H        2.84962887      -0.16057994      -1.72980936
H        3.77351857       1.20921958       0.45725981
H        2.25893906       1.38389943       1.34055951
H        2.43880910       3.06154877      -0.42649985
H        1.08061958       1.99491918      -0.76382968
H        3.75273858       1.89327927      -1.98253918
H        2.38716900       2.41321893      -2.69254887
