17
Properties=species:S:1:pos:R:3 atomization_energy=-1639.68 smiles=C.C.C.N.C.N.O.H.H.H.H.H.H.H.H.H.H pbc="F F F"
C        1.41435947      -0.33947988      -1.21043948
C        2.38109918      -0.35792987      -0.03456999
C        3.02752871       1.00211958       0.20654991
N        3.89706853       1.38775946      -0.88617968
C        4.23238825       2.69669896      -1.06971963
N        5.12344789       2.85386879      -2.08102924
O        3.80274862       3.64722854      -0.43559983
H        0.93362963      -1.31661946      -1.31967948
H        1.93205918      -0.11340995      -2.14797916
H        0.63035975       0.40992985      -1.06148960
H        3.15204889      -1.11668958      -0.21308992
H        1.83431930      -0.65652972       0.86722966
H        3.64505849       0.96696965       1.11122951
H        2.26302909       1.77250924       0.35829985
H        4.62850821       0.73905971      -1.13876957
H        5.00693797       2.24245905      -2.87567878
H        5.28617783       3.82567846      -2.31444916
