16
Properties=species:S:1:pos:R:3 atomization_energy=-1594.7 smiles=C.C.N.C.O.C.C.H.H.H.H.H.H.H.H.H pbc="F F F"
C        0.96628962      -0.00172000      -0.04373998
C        2.49625912       0.01374000      -0.03959998
N        2.98440883       0.17026993      -1.40780945
C        3.07873883      -1.23635957       0.66594975
O        3.55415868      -0.84156966       1.97697919
C        3.56835862       0.53388979       1.92022926
C        3.02059893       1.08694957       0.84363965
H        0.56237976      -0.11716996       0.96950962
H        0.58130977      -0.83282966      -0.64676974
H        0.55516977       0.92868961      -0.45438983
H        4.00183848       0.24131990      -1.39726945
H        2.63664892       1.04405956      -1.79818925
H        3.94095852      -1.65003938       0.12586995
H        2.34442914      -2.04165926       0.78235969
H        3.99683854       1.01853960       2.78115903
H        2.92534893       2.14847903       0.67254973
