10
Properties=species:S:1:pos:R:3 atomization_energy=-1154.32 smiles=C.C.C.N.O.C.C.H.H.H pbc="F F F"
C        0.94589961       0.07499997       0.00012000
C        2.14558908       0.01723999       0.00037000
C        3.56695869      -0.05259998       0.00068000
N        4.27033812       1.08193953       0.00060000
O        5.60004764       0.68131975       0.00094000
C        5.65914766      -0.67509972       0.00122000
C        4.38939810      -1.19198952       0.00106000
H       -0.11714995       0.13755995      -0.00010000
H        6.65236739      -1.09878958       0.00150000
H        4.10244851      -2.23173901       0.00121000
