10
Properties=species:S:1:pos:R:3 atomization_energy=-953.53 smiles=C.O.C.C.H.H.H.H.H.H pbc="F F F"
C        1.00482962      -0.12226995       0.05016998
O        2.41316897      -0.02051999      -0.13886994
C        2.84384896       1.27660943      -0.16262994
C        4.06580849       1.59667940      -0.58943976
H        0.73364972      -1.18157959       0.02189999
H        0.46578981       0.39281984      -0.75235971
H        0.71382973       0.28093988       1.02611956
H        2.14236908       2.01676918       0.19924993
H        4.74964790       0.82977967      -0.93773966
H        4.40382842       2.62645902      -0.59693974
