18
Properties=species:S:1:pos:R:3 atomization_energy=-1710.9 smiles=C.C.N.C.C.C.O.H.H.H.H.H.H.H.H.H.H.H pbc="F F F"
C        2.71717893      -0.92215966      -0.50172980
C        2.26759906       0.44862984      -0.02015999
N        3.38645856       1.39189946      -0.12351995
C        3.22978861       2.38130912      -1.19415957
C        3.00203871       2.75880879       0.25160990
C        3.98169841       3.60145868       1.00869962
O        5.32149815       3.30877864       0.62200973
H        1.89465927      -1.63917930      -0.41589982
H        3.55277868      -1.29766950       0.09787996
H        3.03156878      -0.89216964      -1.55065935
H        1.96117921       0.36683984       1.03103958
H        1.38252952       0.75818969      -0.58909974
H        2.37354917       2.31106918      -1.85327921
H        4.14432843       2.70363883      -1.67904940
H        1.98395918       2.93840884       0.57524978
H        3.89020840       3.40914870       2.08305912
H        3.79387842       4.66440838       0.83118970
H        5.33013798       2.34159899       0.47155981
