18
Properties=species:S:1:pos:R:3 atomization_energy=-1752.2 smiles=C.C.C.C.N.C.O.H.H.H.H.H.H.H.H.H.H.H pbc="F F F"
C        3.10037876      -1.15894952       0.39542986
C        2.37321913       0.03196999       1.00712962
C        2.95579875       1.37520951       0.54614981
C        2.10445921       2.53609895       1.05718956
N        4.32536854       1.53245945       1.01967963
C        5.35393786       1.90317923       0.19334993
O        5.27585799       2.10791917      -1.00831962
H        2.62253906      -2.09318922       0.70701969
H        4.14684846      -1.19612952       0.71495974
H        3.07570884      -1.11373958      -0.69812974
H        2.41738895      -0.04722998       2.10039920
H        1.31581944      -0.02535999       0.72235973
H        2.95013896       1.40812941      -0.54964977
H        2.07887913       2.55811889       2.15258925
H        1.07480953       2.45667895       0.69318973
H        2.51033896       3.49551866       0.71776970
H        4.51184840       1.44023944       2.00909919
H        6.30406749       1.99609921       0.74515969
