16
Properties=species:S:1:pos:R:3 atomization_energy=-1606.45 smiles=C.C.C.C.N.C.O.H.H.H.H.H.H.H.H.H pbc="F F F"
C        1.16291957      -1.91003924      -0.56323976
C        1.64803941      -1.01146959       0.30301987
C        2.16173904       0.34901987      -0.09289996
C        3.62740868       0.56149975       0.30218990
N        4.53117799      -0.31655988      -0.41594984
C        5.00355825      -0.00328000      -1.66321940
O        4.79229794       1.03800961      -2.26665913
H        0.79306970      -2.87172879      -0.22087991
H        1.11545959      -1.70569937      -1.62898940
H        1.66304933      -1.25508949       1.36339940
H        1.54692939       1.10280959       0.41298984
H        2.03949918       0.50913979      -1.17099960
H        3.77500858       0.37414985       1.37144940
H        3.91112843       1.60034943       0.09924996
H        4.65727801      -1.26094950      -0.07568997
H        5.61798789      -0.81657965      -2.08415916
