16
Properties=species:S:1:pos:R:3 atomization_energy=-1554.79 smiles=C.C.O.C.C.N.O.H.H.H.H.H.H.H.H.H pbc="F F F"
C        2.32474906      -1.13335959       0.77666968
C        3.78305845      -0.91421961       0.42614983
O        3.97098846       0.46640982       0.12222995
C        5.32514788       0.73786971      -0.24568990
C        5.55528760       2.22395913      -0.52093980
N        4.45813818       3.01829893      -0.35599985
O        6.63814751       2.68805889      -0.86213964
H        2.13693916      -2.18109915       1.02750960
H        1.68042928      -0.84995967      -0.06208998
H        2.03394915      -0.50808980       1.62721930
H        4.05349851      -1.52608935      -0.44150983
H        4.41591811      -1.19420953       1.27552946
H        5.57228767       0.18601993      -1.15875951
H        5.99483755       0.44301982       0.56921976
H        3.57657856       2.59729887      -0.08403996
H        4.52767815       4.01115834      -0.52298980
