17
Properties=species:S:1:pos:R:3 atomization_energy=-1632.05 smiles=C.C.N.C.C.N.O.H.H.H.H.H.H.H.H.H.H pbc="F F F"
C        2.61123891      -0.34384988       1.50272940
C        2.64461906       0.10900996       0.05048998
N        3.11315883       1.48511946      -0.10123996
C        2.13813925       2.53505910       0.16654994
C        4.47387810       1.68814935      -0.17570993
N        4.88197798       2.97371881      -0.30497989
O        5.31716815       0.79839969      -0.13289996
H        2.28509900      -1.38658940       1.56637933
H        1.91710931       0.26368990       2.09174916
H        3.59994847      -0.26540990       1.96587926
H        1.64778934       0.02955999      -0.39741984
H        3.30355866      -0.55904980      -0.51624979
H        1.24466947       2.35303918      -0.43793982
H        2.51451907       3.53311854      -0.06364998
H        1.87305921       2.50742907       1.22750956
H        4.35659807       3.54276870      -0.95062962
H        5.88443758       3.03986872      -0.43158984
