15
Properties=species:S:1:pos:R:3 atomization_energy=-1502.12 smiles=C.C.C.N.C.N.O.H.H.H.H.H.H.H.H pbc="F F F"
C        0.72158974       0.01489999       0.05672998
C        2.18708924       0.03656999       0.34836986
C        3.02189869       0.96042960      -0.14230994
N        4.36124853       0.95307963       0.14330994
C        5.23748800       1.91139930      -0.29485989
N        6.51986724       1.65929931       0.08636997
O        4.96050801       2.90709882      -0.94817961
H        0.45321983      -0.92707961      -0.43116984
H        0.41659985       0.83744965      -0.59788977
H        0.15507993       0.09305997       0.98963959
H        2.55648908      -0.75359973       0.99607959
H        2.67404895       1.76173937      -0.79307967
H        4.71876811       0.26067990       0.78461969
H        6.82470712       0.69776973       0.08722997
H        7.18226707       2.31318901      -0.31307988
