17
Properties=species:S:1:pos:R:3 atomization_energy=-1614.45 smiles=C.N.C.C.C.C.H.H.H.H.H.H.H.H.H.H.H pbc="F F F"
C        2.24913902      -0.77921967      -1.34853949
N        1.81302923       0.34211986      -0.52488980
C        2.93321889       1.12365960       0.04286998
C        3.69027852       0.45897983       1.16898952
C        3.69232846       2.06382921      -0.86393964
C        2.73706894       2.62012905       0.14962995
H        2.85607896      -0.44449983      -2.19548910
H        1.37238946      -1.29903954      -1.74729933
H        2.82104882      -1.50671939      -0.76512969
H        1.20317953       0.93897962      -1.08283960
H        4.42330839       1.13507961       1.62370937
H        4.23506827      -0.41866985       0.80606967
H        2.99980886       0.13747994       1.95633925
H        3.41178858       2.12346922      -1.90905931
H        4.75382802       2.20309916      -0.69125971
H        3.15098884       3.13882875       1.00744958
H        1.81016930       3.05408885      -0.20728992
