18
Properties=species:S:1:pos:R:3 atomization_energy=-1727.42 smiles=C.C.N.C.C.C.O.H.H.H.H.H.H.H.H.H.H.H pbc="F F F"
C        1.09831961       0.28396987      -0.47471981
C        2.58824901       0.13473994      -0.20866992
N        3.20565868       1.45726940      -0.09994996
C        4.64414820       1.33983949       0.16600993
C        5.27255800       2.72703902       0.22170991
C        6.75368747       2.66054898       0.49045980
O        7.38057723       1.62716934       0.69943972
H        0.62772977      -0.70205974      -0.54893977
H        0.91523966       0.81645967      -1.41470945
H        0.60212975       0.83342970       0.33310987
H        3.04086870      -0.42980984      -1.03124959
H        2.73211895      -0.43362981       0.71701971
H        2.75826880       1.97328922       0.65794971
H        5.12592781       0.75427969      -0.62677974
H        4.81164822       0.81547967       1.11509951
H        4.81985806       3.33013873       1.01665960
H        5.13339782       3.25295868      -0.72944973
H        7.26776699       3.63699852       0.50467980
