13
Properties=species:S:1:pos:R:3 atomization_energy=-1374.58 smiles=C.C.C.N.C.O.N.H.H.H.H.H.H pbc="F F F"
C        1.09294962      -0.09768996       0.26514990
C        2.38478902       0.01529999      -0.04718998
C        3.22100875       1.26935946      -0.12076995
N        4.49933832       0.73864973      -0.52086978
C        4.47053825      -0.63855976      -0.66159975
O        5.40561783      -1.34713943      -0.98375958
N        3.18306872      -1.04587956      -0.36857986
H        0.59316978      -1.06062952       0.28288990
H        0.49901982       0.77690971       0.51037980
H        3.33100877       1.75989936       0.84979969
H        2.87123877       1.96730923      -0.88541965
H        5.34474796       1.26496952      -0.68444973
H        2.90819873      -2.01574926      -0.40546984
