18
Properties=species:S:1:pos:R:3 atomization_energy=-1711.15 smiles=C.C.C.O.C.N.C.H.H.H.H.H.H.H.H.H.H.H pbc="F F F"
C        0.88828967      -0.09353996       0.12393995
C        2.40362908      -0.02358999      -0.04179998
C        2.84508892      -0.05033998      -1.50463942
O        2.36262904       1.10160950      -2.18996910
C        3.10196870       1.05041957       0.82978970
N        4.08382848       0.03907999       1.26736944
C        3.16970879      -1.03835959       0.84266969
H        0.60008978      -0.13648995       1.18014951
H        0.48337982      -0.98469964      -0.36622987
H        0.40152984       0.78575966      -0.30944988
H        2.47394901      -0.94406964      -2.01800926
H        3.93629847      -0.04863998      -1.59698938
H        1.41203941       0.97456961      -2.34975913
H        2.49646906       1.44136938       1.65642930
H        3.53525856       1.90208929       0.29589988
H        4.95323785       0.07189997       0.73378971
H        3.65710857      -1.86744925       0.31908987
H        2.59463904      -1.45887940       1.67667938
