14
Properties=species:S:1:pos:R:3 atomization_energy=-1466.92 smiles=C.C.C.C.O.C.N.H.H.H.H.H.H.H pbc="F F F"
C        1.13844949      -0.58062974      -0.18054992
C        2.54720909      -0.01787000      -0.03551998
C        2.57604905       1.51296938       0.04569998
C        3.96313844       2.03039923       0.36061985
O        4.90340797       1.32824953       0.72217969
C        2.14030905       2.13846905      -1.20975957
N        1.79431924       2.65300907      -2.18864915
H        1.16734950      -1.67479939      -0.15907994
H        0.68125976      -0.27826990      -1.12768958
H        0.49456980      -0.24298991       0.63777974
H        3.16306870      -0.37028984      -0.87302968
H        2.98988871      -0.44140982       0.87499964
H        1.92867920       1.84918930       0.86458965
H        4.08006849       3.12898883       0.32719987
