16
Properties=species:S:1:pos:R:3 atomization_energy=-1510.6 smiles=C.C.C.C.O.N.O.H.H.H.H.H.H.H.H.H pbc="F F F"
C        1.10546954      -0.12442995      -0.17989993
C        2.40456901       0.61838972       0.01473000
C        3.66268862      -0.21184991       0.19878992
C        4.32009835      -0.46327981      -1.15118957
O        5.01828783       0.68710974      -1.61011932
N        2.37585902       1.91835923      -0.03601999
O        3.64496866       2.47995903       0.12350995
H        0.27352989       0.57555978      -0.29069990
H        0.92082962      -0.76414970       0.68664975
H        1.17280957      -0.74352969      -1.07751957
H        3.37339866      -1.16578958       0.65265972
H        4.34706852       0.29194988       0.88804964
H        3.58934854      -0.74791968      -1.91420927
H        5.05251808      -1.27117952      -1.06295955
H        4.49315823       1.47054947      -1.34729953
H        3.44550862       3.43305860       0.20071993
