16
Properties=species:S:1:pos:R:3 atomization_energy=-1485.61 smiles=C.N.C.C.C.N.H.H.H.H.H.H.H.H.H.H pbc="F F F"
C        2.92799892      -1.12027950      -0.45277983
N        2.36896911       0.08268997       0.14914995
C        3.32971860       1.19229950       0.16804994
C        3.43141870       2.10706920      -1.01938958
C        2.80719886       2.60828891       0.24816991
N        3.50660862       3.61010859       1.05370959
H        2.17125924      -1.91062919      -0.46405983
H        3.79156858      -1.48419946       0.11334995
H        3.23322864      -0.93840966      -1.48831940
H        2.05445914      -0.13017995       1.09578961
H        4.25515837       0.98312964       0.70079973
H        2.77436879       1.93069924      -1.86331922
H        4.41170822       2.47325913      -1.29742954
H        1.72658937       2.73768892       0.22443992
H        4.51312823       3.45388854       1.05559961
H        3.20851886       3.55245872       2.02689914
