17
Properties=species:S:1:pos:R:3 atomization_energy=-1576.73 smiles=C.C.C.N.N.C.O.H.H.H.H.H.H.H.H.H.H pbc="F F F"
C        1.92013930      -0.53497980       1.07532959
C        2.75454893      -0.23412991      -0.15658994
C        3.59086859       1.01336958       0.06938997
N        3.09250880       2.18512914      -0.21549991
N        4.85964818       0.93201963       0.61666977
C        5.71960774      -0.23024991       0.55567979
O        5.57597776       2.13271918       0.46412982
H        1.31312946      -1.43149944       0.91602964
H        1.24655956       0.29739989       1.30588945
H        2.55562888      -0.70086975       1.95154924
H        2.09797922      -0.07383997      -1.01906962
H        3.39569868      -1.08654962      -0.39707985
H        2.14134916       2.08190912      -0.58724978
H        5.24040797      -1.09546953       1.02349961
H        6.65474738      -0.04498998       1.09473954
H        5.96376750      -0.47585981      -0.48279981
H        4.85315822       2.77705890       0.27757990
