16
Properties=species:S:1:pos:R:3 atomization_energy=-1553.18 smiles=C.C.N.O.C.C.C.H.H.H.H.H.H.H.H.H pbc="F F F"
C        3.82631838       5.58135796       1.62131942
C        4.35486808       4.63767793       0.58929978
N        5.42976795       3.95437851       0.80415965
O        5.70518752       3.18852867      -0.34128985
C        6.90796734       2.44655895      -0.12732995
C        7.43592710       2.03647915      -1.46772942
C        7.68686700       0.77351970      -1.84215923
H        3.79371844       6.58746728       1.19345947
H        4.45864839       5.58313791       2.51310905
H        2.80956901       5.28275773       1.89016929
H        3.79065842       4.56193817      -0.35624985
H        6.68295750       1.58351944       0.50834980
H        7.65538716       3.07318881       0.37311987
H        7.62523711       2.84521887      -2.17030922
H        7.51241728      -0.06507997      -1.17686958
H        8.07109685       0.55861977      -2.83463887
