12
Properties=species:S:1:pos:R:3 atomization_energy=-1280.55 smiles=C.C.N.C.O.C.O.H.H.H.H.H pbc="F F F"
C        2.97894889      -1.12590951       0.13268995
C        2.48202890       0.11391995       0.04572998
N        3.18176871       1.31407949      -0.01692000
C        2.46335891       2.50090909      -0.10317996
O        1.24007956       2.61360906      -0.13133995
C        4.56056802       1.40767950       0.00042000
O        5.22553809       2.43826911      -0.05133998
H        2.29510898      -1.97108927       0.17345993
H        4.03238848      -1.37144940       0.16742993
H        1.39573944       0.22166992       0.01948999
H        3.10268885       3.39883869      -0.14799995
H        5.07295792       0.43790983       0.06814998
