16
Properties=species:S:1:pos:R:3 atomization_energy=-1601.96 smiles=C.C.C.C.O.C.N.H.H.H.H.H.H.H.H.H pbc="F F F"
C        0.99166960      -0.16079994       0.04610998
C        2.51012902      -0.02141999      -0.00107000
C        3.02738892       1.43281939       0.00000000
C        2.51178910       2.22528917      -1.20391949
O        2.52365902       2.09121914       1.17525958
C        4.47138809       1.43281939       0.00000000
N        5.62239763       1.43281939       0.00000000
H        0.71764971      -1.21844948       0.11859996
H        0.52501978       0.23770991      -0.85865968
H        0.56888978       0.35390985       0.91345965
H        2.88716894      -0.55767977      -0.88258964
H        2.91081894      -0.54655979       0.87790965
H        2.78274897       1.74702933      -2.15182923
H        2.92742890       3.24092878      -1.20952957
H        1.42380940       2.34798903      -1.17056950
H        2.95584872       1.68714936       1.94895919
