16
Properties=species:S:1:pos:R:3 atomization_energy=-1577.64 smiles=C.C.N.C.C.C.O.H.H.H.H.H.H.H.H.H pbc="F F F"
C        1.00794963       0.07021997       0.00710000
C        2.52315890       0.00881000       0.01004000
N        3.13748887       0.99751958       0.93786961
C        4.17272831      -0.01301999       1.26496952
C        3.17868876      -1.11449960       0.84968968
C        3.72311843      -2.34700897       0.10640996
O        4.52584824      -2.35634901      -0.82645968
H        0.59473979      -0.76491969      -0.56800977
H        0.65719972       0.99851963      -0.45608982
H        0.59116974       0.01676999       1.01883962
H        2.92464897       0.08769997      -1.00984963
H        2.54868902       1.24797955       1.73294938
H        5.06952824       0.06622998       0.63916977
H        4.48012835      -0.02542999       2.31475902
H        2.55058908      -1.42845948       1.69777932
H        3.33188865      -3.30819878       0.48049981
