18
Properties=species:S:1:pos:R:3 atomization_energy=-1708.8 smiles=C.C.O.C.C.C.N.H.H.H.H.H.H.H.H.H.H.H pbc="F F F"
C        2.10386913       4.33131851      -0.53000982
C        3.20678862       3.61380852       0.22123991
O        3.86885840       2.72969885      -0.68013973
C        4.92996785       1.98474923      -0.05005998
C        5.98762744       1.47197943      -0.98604961
C        6.29780766       2.62041897      -0.07359997
N        7.22473694       2.42801917       1.04217957
H        1.57610935       5.02937779       0.12541995
H        1.38371951       3.61309846      -0.93475963
H        2.51400912       4.88524820      -1.38045952
H        2.78365888       3.04030878       1.05343960
H        3.92552847       4.34048823       0.61607976
H        4.66737833       1.33772949       0.78074969
H        5.87549749       1.68448929      -2.04300923
H        6.42628767       0.50461981      -0.77676966
H        6.37360746       3.59731868      -0.54728978
H        7.14635730       1.49369935       1.44138944
H        7.01678722       3.07934872       1.79844927
