14
Properties=species:S:1:pos:R:3 atomization_energy=-1462.2 smiles=C.C.C.C.C.N.O.H.H.H.H.H.H.H pbc="F F F"
C        1.00099961      -0.05422998       0.00309000
C        2.51999896       0.00000000       0.00000000
C        3.00201878       1.36116943       0.00000000
C        3.39929870       2.48306901       0.00000000
C        3.94527844       3.81740856       0.00000000
N        5.30242797       3.89742835       0.00000000
O        3.21865879       4.79943791       0.00000000
H        0.65765973      -1.09365956       0.00240000
H        0.58495974       0.44183982      -0.88072964
H        0.58868977       0.43941984       0.88999966
H        2.89563894      -0.53271979      -0.88083965
H        2.89930885      -0.53409980       0.87842964
H        5.88587789       3.07336872       0.00000000
H        5.72834799       4.81296791       0.00000000
