18
Properties=species:S:1:pos:R:3 atomization_energy=-1774.75 smiles=C.C.C.N.C.C.C.H.H.H.H.H.H.H.H.H.H.H pbc="F F F"
C       -0.89500963      -0.01418999      -1.11459952
C       -0.59460977       1.06231964      -0.03623998
C       -1.16316950      -0.00823000       0.92738966
N       -0.66735971      -1.04083956      -0.04042999
C        0.78591970      -1.23176954       0.18396992
C        1.65326935       0.01035000      -0.07968997
C        0.89321966       1.30246948       0.21379991
H       -1.92854925      -0.00180000      -1.48494939
H       -0.23543990      -0.06133998      -1.98719924
H       -1.17770959       1.98582920      -0.09916996
H       -0.74290971      -0.04398999       1.93813923
H       -2.25676901       0.00559000       1.02163962
H        0.94240962      -1.57807943       1.21363954
H        1.13309956      -2.04756924      -0.46105983
H        1.94643928       0.01195999      -1.13744950
H        2.58393894      -0.03195999       0.49585981
H        1.26890955       2.10677914      -0.42843983
H        1.05380958       1.61576939       1.25201950
