15
Properties=species:S:1:pos:R:3 atomization_energy=-1481.21 smiles=C.C.C.N.N.C.O.H.H.H.H.H.H.H.H pbc="F F F"
C        0.99214960      -0.01440999       0.02313999
C        2.50717901       0.00396000       0.01781999
C        3.11026889       1.11119961       0.87900969
N        4.43395829       0.60741975       1.28568945
N        4.30556810      -0.79027967       1.23030955
C        3.12274868      -1.21372950       0.64856974
O        2.70865896      -2.35884911       0.61043977
H        0.61370974      -0.83472965      -0.59527978
H        0.59061979       0.92419963      -0.37094985
H        0.59696976      -0.15983994       1.03431957
H        2.88294896       0.07155997      -1.01093963
H        2.50961905       1.29206952       1.77889928
H        3.19360885       2.05727920       0.33345985
H        5.12227808       0.88110965       0.57719980
H        4.83010826      -1.41932938       1.83160926
