18
Properties=species:S:1:pos:R:3 atomization_energy=-1636.46 smiles=C.C.C.N.C.N.H.H.H.H.H.H.H.H.H.H.H.H pbc="F F F"
C        1.25428947      -0.17053992       0.41144983
C        2.54924894       0.11563995      -0.35964986
C        2.59006907      -0.65194972      -1.69494930
N        2.52551896      -2.10198914      -1.49890936
C        2.67341888       1.63378938      -0.58561978
N        3.95447843       2.00221925      -1.18455950
H        1.22985952       0.39276984       1.35107945
H        1.16561951      -1.23144946       0.66734975
H        0.37281984       0.11308996      -0.17464993
H        3.39022865      -0.21426991       0.26549989
H        3.51192852      -0.42388983      -2.24110908
H        1.75054936      -0.34690987      -2.33036899
H        3.33673871      -2.40157914      -0.95922964
H        2.60595888      -2.56076887      -2.40595911
H        2.57463902       2.16257905       0.36942987
H        1.86501931       1.98599928      -1.23668950
H        4.71199806       1.74260937      -0.55241980
H        4.00167851       3.01721870      -1.27728947
