16
Properties=species:S:1:pos:R:3 atomization_energy=-1614.9 smiles=C.C.C.C.C.N.O.H.H.H.H.H.H.H.H.H pbc="F F F"
C        0.97278961      -0.07297997      -0.00226000
C        2.48852896       0.04776998      -0.12258995
C        2.97172893      -0.59223975      -1.40169950
C        3.80732843      -1.63810941      -1.46035945
C        2.91289891       1.51894939      -0.13259995
N        4.17983825       1.75695933       0.32466986
O        2.21682900       2.44255900      -0.54061978
H        0.61596974       0.43380982       0.90198962
H        0.66671974      -1.12380961       0.05743998
H        0.45604982       0.38070986      -0.85703964
H        2.94372874      -0.43478984       0.75084970
H        2.60488899      -0.15886994      -2.33310905
H        4.19818828      -2.11353922      -0.56671979
H        4.10994830      -2.04971922      -2.41924914
H        4.85034826       1.00905957       0.43370983
H        4.52321845       2.70450887       0.24474990
