16
Properties=species:S:1:pos:R:3 atomization_energy=-1565.31 smiles=C.C.O.C.C.C.N.H.H.H.H.H.H.H.H.H pbc="F F F"
C        0.93400963       0.08210997      -0.15224995
C        2.38446906       0.21702991       0.14385995
O        3.21570878      -0.74926972      -0.50552981
C        3.36995862       0.62106973      -0.92751961
C        4.73543812       1.21716953      -0.62667975
C        5.87185786       1.17162954      -1.61899936
N        5.16497808       2.41715908      -1.35102949
H        0.41566982       1.01744959       0.07855997
H        0.49646979      -0.71080971       0.46178982
H        0.74866968      -0.15989994      -1.20356950
H        2.59202893       0.45743982       1.17713957
H        2.95485882       0.87319963      -1.90002926
H        5.02819789       1.18615953       0.42175984
H        5.69082785       0.71418975      -2.58305906
H        6.88248744       1.08800961      -1.24207954
H        5.71546799       3.02522871      -0.74267971
