15
Properties=species:S:1:pos:R:3 atomization_energy=-1500.0 smiles=C.C.N.N.C.C.O.H.H.H.H.H.H.H.H pbc="F F F"
C        1.06960962      -0.22297991      -0.27006989
C        2.56046910      -0.42376984      -0.24500990
N        3.09097866      -1.57100936      -0.48287980
N        3.30836860       0.69158970       0.05415998
C        4.67051833       0.87562965       0.16621994
C        5.59485769      -0.28832987      -0.05549998
O        5.09631825       1.99874919       0.44383983
H        0.79666971       0.82543970      -0.12589995
H        0.61590975      -0.82123971       0.52535980
H        0.67617977      -0.56275977      -1.23259946
H        2.36840919      -2.27217913      -0.68045975
H        2.81501885       1.55606933       0.22889990
H        5.38270766      -1.08559959       0.66039972
H        6.62676737       0.03934998       0.10373995
H        5.50853769      -0.64910973      -1.08288956
