15
Properties=species:S:1:pos:R:3 atomization_energy=-1463.68 smiles=C.C.N.N.C.C.O.H.H.H.H.H.H.H.H pbc="F F F"
C        1.05742959      -0.02118999       0.05686997
C        2.54879903       0.00872000       0.02608999
N        3.28005880      -1.06221959      -0.03633999
N        4.56569841      -0.64413975       0.03997998
C        4.71028826       0.78155967      -0.23305991
C        3.30980866       1.31335946       0.06535997
O        2.86436880       2.24523924      -0.90061965
H        0.69640973      -1.05257959       0.03966998
H        0.66335976       0.51035980      -0.81282969
H        0.70480971       0.46878981       0.96804963
H        5.21126775      -1.23316947      -0.48763981
H        4.99270801       0.95021965      -1.27817944
H        5.46696763       1.23956948       0.41026984
H        3.23005861       1.74388933       1.06846958
H        2.96700882       1.83358930      -1.77716929
