12
Properties=species:S:1:pos:R:3 atomization_energy=-1261.81 smiles=C.C.C.O.N.C.O.H.H.H.H.H pbc="F F F"
C        0.93966962       0.01876999      -0.00806000
C        2.41253915       0.04440998      -0.00038000
C        3.28661866       1.04662962       0.00274000
O        4.61828828       0.70504974       0.01055000
N        4.55760817      -0.70455971       0.01966999
C        3.26294873      -1.14703960       0.00433000
O        2.87295891      -2.29867921      -0.00504000
H        0.52444979       1.03174958      -0.00469000
H        0.55902981      -0.50405979       0.87489965
H        0.56808976      -0.49473981      -0.90026967
H        3.09367886       2.10575922       0.00038000
H        5.39540800      -1.26491956       0.00661000
