14
Properties=species:S:1:pos:R:3 atomization_energy=-1406.56 smiles=C.N.C.C.C.O.O.H.H.H.H.H.H.H pbc="F F F"
C        1.18564957       0.14492994      -0.13767994
N        2.64392893       0.20709992      -0.03670999
C        3.32188876      -0.65978972      -0.99764960
C        3.27251864       0.83313965      -1.22079956
C        4.46264835       1.66957929      -0.91973961
O        4.68545836       1.82283923       0.40806983
O        5.15036811       2.16164921      -1.79731933
H        0.75394971       1.07881958       0.23680990
H        0.81066967      -0.67011972       0.48986982
H        0.80890967      -0.01466999      -1.15543959
H        2.72600901      -1.29664946      -1.64151929
H        4.25724818      -1.09939959      -0.66954976
H        2.62808908       1.21451955      -2.00421923
H        3.99337832       1.30013945       0.87580968
