18
Properties=species:S:1:pos:R:3 atomization_energy=-1758.43 smiles=C.C.C.C.N.C.C.H.H.H.H.H.H.H.H.H.H.H pbc="F F F"
C        0.98167961       0.02911999       0.06701997
C        0.73721970       0.34385988       1.51482945
C       -0.07060998       1.55451938       1.91299921
C       -0.64154976       0.17649992       2.10406923
N        2.24495915       0.66151976      -0.32271988
C        3.34748878      -0.28121987      -0.50174979
C        2.65020895       0.33079987      -1.68644940
H        0.97829964      -1.06010959      -0.06465997
H        0.16945993       0.43051983      -0.55135976
H        1.57659938       0.06369997       2.14272916
H       -0.48739981       2.17738912       1.12932961
H        0.24729990       2.10444912       2.79106884
H       -0.71565971      -0.20419992       3.11656884
H       -1.45174940      -0.13106995       1.45389939
H        3.18440885      -1.33053944      -0.28844989
H        4.33102833       0.09125997      -0.24146991
H        3.16157868       1.11840959      -2.22645923
H        1.99500927      -0.29050989      -2.28429910
