16
Properties=species:S:1:pos:R:3 atomization_energy=-1566.5 smiles=C.C.C.C.C.N.O.H.H.H.H.H.H.H.H.H pbc="F F F"
C        2.21598925      -0.12471995       1.43713943
C        2.61138905       0.34811986       0.04543998
C        2.96907895       1.80748929       0.02475999
C        2.11762926       2.77663902      -0.34451985
C        4.35261829       2.21480909       0.38762986
N        5.27846810       1.37460947       0.72145973
O        6.45794767       2.07965921       0.99068961
H        1.96632917      -1.19054959       1.41586942
H        1.33762944       0.41832983       1.80289926
H        3.02846890       0.01730999       2.15711910
H        1.77713927       0.15730994      -0.64130973
H        3.44728857      -0.25479989      -0.32822988
H        1.09760955       2.54094901      -0.63376975
H        2.40046913       3.82470850      -0.36658985
H        4.56305802       3.29981861       0.35276985
H        7.08173729       1.36357944       1.21302953
