14
Properties=species:S:1:pos:R:3 atomization_energy=-1452.8 smiles=C.C.C.O.C.C.N.H.H.H.H.H.H.H pbc="F F F"
C        1.03400958       0.00006000      -0.07363997
C        2.52340896      -0.01941999      -0.02443999
C        3.35569863      -0.74905972      -1.04563960
O        2.66986884      -1.40394941      -2.12515908
C        3.33559868       0.76120972      -1.03634958
C        4.50490828       1.46560946      -0.59075977
N        5.44398782       2.03835914      -0.22537991
H        0.64559974       0.71086970       0.66300972
H        0.63444973      -0.98996958       0.16774993
H        0.64991971       0.29732987      -1.05455957
H        2.87482894      -0.06756998       1.00234958
H        4.25118819      -1.24577948      -0.67870970
H        1.85959923      -0.95058963      -2.41101910
H        2.80175885       1.24910949      -1.84389931
