16
Properties=species:S:1:pos:R:3 atomization_energy=-1605.65 smiles=C.C.N.C.C.C.O.H.H.H.H.H.H.H.H.H pbc="F F F"
C        0.98689959      -0.11898995      -0.13158995
C        2.50168904      -0.04104998      -0.10106996
N        3.12956870      -1.27524950      -0.19136992
C        3.13761882       1.15036949      -0.01174999
C        2.48638894       2.49135910       0.18481994
C        4.62532833       1.21755950      -0.12551995
O        5.25957808       2.25077917       0.05489998
H        0.52492979       0.77497969      -0.56030976
H        0.59737974      -0.27409991       0.87956967
H        0.65619974      -0.95660962      -0.75667968
H        2.51520895      -2.06098922       0.02134999
H        3.99783853      -1.35038946       0.33329988
H        1.43661950       2.42072906       0.48071981
H        2.54289903       3.07865884      -0.73733969
H        2.98696873       3.05072880       0.98298959
H        5.13990796       0.28212988      -0.39527985
