18
Properties=species:S:1:pos:R:3 atomization_energy=-1765.39 smiles=C.C.C.C.C.C.N.H.H.H.H.H.H.H.H.H.H.H pbc="F F F"
C        0.67549973       1.02139958      -0.43448982
C       -0.52264979       0.21055991      -0.02677999
C        0.84339969      -0.42038983      -0.03545999
C        1.60972934      -0.85584965       1.18246957
C        1.47932946      -0.14522995       2.54902891
C        1.45385940      -1.56867933       3.12548875
N        0.96035964      -2.03336917       1.80983925
H        0.78539971       1.27309951      -1.48303937
H        1.01705961       1.79280929       0.24582991
H       -1.22180952      -0.09370996      -0.79721966
H       -0.98975964       0.42441982       0.92691963
H        1.04315956      -1.12933958      -0.83417969
H        2.66178893      -1.04225962       0.92079965
H        0.55087976       0.41297984       2.70753886
H        2.32635919       0.47628982       2.84951885
H        2.44146893      -1.96499926       3.39126876
H        0.76574973      -1.73203934       3.95882837
H        1.32825950      -2.93244878       1.50670943
