10
Properties=species:S:1:pos:R:3 atomization_energy=-1143.43 smiles=C.C.C.O.C.C.N.H.H.H pbc="F F F"
C        1.00971961      -0.05470998      -0.12168995
C        2.20220919       0.04458998      -0.02397999
C        3.62302845       0.16408993       0.09643996
O        4.33739818      -0.53114979      -0.93529961
C        4.39511845       0.90353963      -0.96589964
C        5.67636775       1.44685948      -0.63898973
N        6.70405745       1.90891926      -0.36187986
H       -0.04812998      -0.15005995      -0.20895992
H        4.03388834       0.11480996       1.09897959
H        3.84574839       1.40324944      -1.75348927
