16
Properties=species:S:1:pos:R:3 atomization_energy=-1480.93 smiles=C.N.C.C.C.N.H.H.H.H.H.H.H.H.H.H pbc="F F F"
C        1.23310954       0.03192999      -0.40001983
N        2.68676897       0.09801996      -0.47173982
C        3.20118863       1.12934955       0.43123983
C        4.69885816       1.10762963       0.35467987
C        5.43137782       1.94276925      -0.66372974
N        5.45821779       2.29491922       0.75215974
H        0.87186965      -0.75962968      -1.06370960
H        0.77299971       0.97347961      -0.71673974
H        0.89539967      -0.20905991       0.61345974
H        2.96024887       0.33176987      -1.42567943
H        2.90026897       0.91694965       1.46384944
H        2.80536895       2.11511919       0.15528994
H        5.11769777       0.15153994       0.64853971
H        4.86477807       2.60775901      -1.30327946
H        6.34982726       1.55518945      -1.08761963
H        6.34500773       2.02243919       1.18021953
