17
Properties=species:S:1:pos:R:3 atomization_energy=-1634.47 smiles=C.C.C.N.C.N.O.H.H.H.H.H.H.H.H.H.H pbc="F F F"
C        0.83058965      -0.26203989       0.24090991
C        2.30896903       0.03648999      -0.01857999
C        3.18867880      -0.68313976       1.00820959
N        2.68590903      -0.43736984      -1.37770948
C        2.57748910       1.56274942       0.06159998
N        3.77900854       1.94726920      -0.47209983
O        1.82664931       2.37874896       0.58126978
H        0.18628992       0.26642989      -0.47153981
H        0.53352978       0.05960997       1.24579954
H        0.61655975      -1.33370947       0.15826994
H        2.97767890      -0.32308986       2.02196922
H        4.25549852      -0.51088980       0.82309970
H        3.01801885      -1.76573932       0.99468963
H        2.04294918      -0.01656000      -2.05153916
H        2.51375905      -1.44195946      -1.43167948
H        4.21292821       1.30818945      -1.13031951
H        3.96009835       2.93744872      -0.55126980
