12
Properties=species:S:1:pos:R:3 atomization_energy=-1231.24 smiles=C.C.O.C.O.N.C.H.H.H.H.H pbc="F F F"
C        0.95924964       0.00320000       0.03811998
C        2.29150922       0.08897996       0.09593996
O        2.91684890       1.29702947       0.32185987
C        4.30412830       1.19170956      -0.01436000
O        4.94449810       0.03338998       0.53813981
N        4.40050825      -1.18228952       0.04982998
C        3.11659887      -1.12933958      -0.10674996
H        0.35008987       0.88989967       0.18098992
H        0.44348981      -0.93321965      -0.14107995
H        4.80968811       2.07292916       0.39081986
H        4.43211829       1.20682950      -1.10468959
H        2.58380899      -2.03827915      -0.42963983
