16
Properties=species:S:1:pos:R:3 atomization_energy=-1602.95 smiles=C.C.C.C.O.C.N.H.H.H.H.H.H.H.H.H pbc="F F F"
C        0.98186962       0.00949000      -0.00647000
C        2.51999896       0.00000000       0.00000000
C        3.01615892      -0.72420970       1.26154955
C        3.01858886      -0.71701971      -1.27230946
O        4.42795835      -0.93869966      -1.26396953
C        3.00201878       1.36116943       0.00000000
N        3.38622869       2.44615901       0.00000000
H        0.58953974       0.51792981      -0.89524966
H        0.58177974       0.53181979       0.87049969
H        0.57935976      -1.00953957       0.00034000
H        2.62820894      -0.24902990       2.17047903
H        4.10965837      -0.71088970       1.33536943
H        2.69179894      -1.77067933       1.26824945
H        2.76651902      -0.15880994      -2.18243903
H        2.54952903      -1.70356931      -1.35703952
H        4.87181812      -0.08455997      -1.42236947
