18
Properties=species:S:1:pos:R:3 atomization_energy=-1720.81 smiles=C.C.C.N.C.C.O.H.H.H.H.H.H.H.H.H.H.H pbc="F F F"
C        1.02216957      -0.01665999      -0.03010999
C        2.52627898      -0.04662998       0.02177999
C        3.14766867      -1.41754944       0.02473999
N        3.43127866      -1.83207922      -1.34393949
C        3.23690864       1.10085958       0.03065999
C        4.72587830       1.22318952       0.02373999
O        5.15634785       1.27336950      -1.32570944
H        0.62800973       1.00496960      -0.04898998
H        0.60259978      -0.51760979       0.84865966
H        0.66033973      -0.52750979      -0.92820961
H        2.47764894      -2.13984905       0.50520979
H        4.07399841      -1.43571943       0.60681977
H        2.55021891      -1.92340926      -1.84770925
H        3.83476844      -2.76830881      -1.32403951
H        2.70956887       2.05222916      -0.00782000
H        5.23336793       0.39772986       0.52885979
H        5.02930815       2.14731906       0.52488980
H        4.77447830       0.48056980      -1.75088937
