16
Properties=species:S:1:pos:R:3 atomization_energy=-1573.35 smiles=C.C.C.O.C.N.O.H.H.H.H.H.H.H.H.H pbc="F F F"
C        0.71070972      -1.01395960      -0.30415987
C        2.03917922      -0.32350987      -0.01524000
C        3.13183866      -0.85026966      -0.93752966
O        1.91248925       1.08806954      -0.26791990
C        1.40874939       1.82541932       0.74571974
N        1.33330953       3.12180875       0.37355987
O        1.06000955       1.41927942       1.84161924
H       -0.07686997      -0.63720973       0.35654987
H        0.78836971      -2.09642914      -0.16424994
H        0.38112983      -0.81452965      -1.32983947
H        2.34533904      -0.50304980       1.02275959
H        2.88760876      -0.65759973      -1.98813917
H        3.28218873      -1.92578925      -0.80306971
H        4.07892846      -0.33799987      -0.73623972
H        1.62240936       3.39593865      -0.55182979
H        0.96278959       3.79728842       1.02386959
