16
Properties=species:S:1:pos:R:3 atomization_energy=-1562.46 smiles=C.C.C.N.C.O.O.H.H.H.H.H.H.H.H.H pbc="F F F"
C        2.59119901       0.12867995       1.78022932
C        3.65049850       0.60411976       0.79591972
C        3.09763870       0.88268962      -0.60517974
N        2.08122922       1.97874916      -0.60593976
C        4.23362846       1.28017954      -1.56801936
O        3.86150849       2.32712905      -2.35235915
O        5.31941794       0.72996973      -1.65392932
H        3.05661872      -0.12802995       2.73723901
H        2.07780925      -0.76159970       1.40368939
H        1.84409928       0.90449962       1.97267921
H        4.43053819      -0.16489992       0.73016970
H        4.14176828       1.50037944       1.19590948
H        2.62932904      -0.01397999      -1.02683959
H        2.37654914       2.68712905       0.07545997
H        1.21606949       1.60014933      -0.20907991
H        2.94229878       2.55792888      -2.06348919
