16
Properties=species:S:1:pos:R:3 atomization_energy=-1549.57 smiles=C.C.O.N.C.C.C.H.H.H.H.H.H.H.H.H pbc="F F F"
C        1.18525959      -0.28751989       0.62773974
C        2.50074911       0.24939991       0.07350997
O        2.54128890       0.03181998      -1.34379945
N        3.01109891      -1.26704949      -1.60651930
C        3.08085867      -1.42417944      -2.88433880
C        2.60196901       1.73582936       0.29363987
C        3.55003861       2.33423899       1.02774963
H        1.09386962      -0.09413996       1.70150928
H        1.11224956      -1.36842950       0.46591983
H        0.32607986       0.16233993       0.11659996
H        3.34557863      -0.26264990       0.55246976
H        3.43333869      -2.37964903      -3.30198866
H        2.80163899      -0.63514976      -3.60295853
H        1.84879933       2.34913915      -0.19586993
H        4.32977828       1.76546933       1.52514941
H        3.56754863       3.41394854       1.13806961
