11
Properties=species:S:1:pos:R:3 atomization_energy=-1212.42 smiles=C.C.N.C.N.C.O.H.H.H.H pbc="F F F"
C        1.00802962       0.03014999      -0.00579000
C        2.48486914       0.06425997      -0.00166000
N        3.28034873       1.08699953       0.00048000
C        4.54917829       0.52474978       0.00202000
N        4.63252835      -0.77184971       0.00080000
C        3.32381859      -1.17849951      -0.00187000
O        2.86215888      -2.30159918      -0.00423000
H        0.60897979       1.04756962       0.00560000
H        0.65140973      -0.50494980       0.87804963
H        0.65653975      -0.48300981      -0.90456964
H        5.43985766       1.17351950       0.00417000
