14
Properties=species:S:1:pos:R:3 atomization_energy=-1475.01 smiles=C.C.C.N.C.C.O.H.H.H.H.H.H.H pbc="F F F"
C        0.95498966      -0.10548996      -0.00426000
C        2.41743917       0.08859996      -0.00484000
C        3.24763878       1.18696951      -0.00423000
N        2.88266887       2.47696891      -0.00226000
C        4.57159843       0.70414974      -0.00668000
C        4.47167828      -0.66814977      -0.00835000
O        3.16857885      -1.05274960      -0.00712000
H        0.42421984       0.85104968       0.00834000
H        0.64584974      -0.67606975       0.87693968
H        0.64259977      -0.65477974      -0.89772963
H        3.55589850       3.23584885       0.01878999
H        1.91318921       2.77492897       0.02059999
H        5.48921770       1.27286951      -0.00753000
H        5.19426819      -1.47169947      -0.01057999
