16
Properties=species:S:1:pos:R:3 atomization_energy=-1503.28 smiles=C.C.C.O.C.N.O.H.H.H.H.H.H.H.H.H pbc="F F F"
C        1.31121944      -0.06358998       1.17137948
C        2.07716921       0.13875994      -0.12267995
C        3.20570864       1.12626959       0.06024998
O        2.70411902       2.38495909       0.18143992
C        3.52548854       3.50483851       0.53071982
N        4.43138804       0.69933974       0.07344997
O        5.39801811       1.69413932       0.19529993
H        0.53519977      -0.82410966       1.03978961
H        0.82602965       0.86439964       1.49212947
H        1.97773921      -0.38647986       1.97794928
H        1.41081938       0.50256981      -0.91235961
H        2.49126902      -0.81760967      -0.46051981
H        2.86141879       4.35334803       0.71959973
H        4.17946834       3.77029857      -0.30421987
H        4.08386835       3.30908875       1.45046946
H        6.22894747       1.18481952       0.15247994
