15
Properties=species:S:1:pos:R:3 atomization_energy=-1481.2 smiles=C.C.N.N.C.C.O.H.H.H.H.H.H.H.H pbc="F F F"
C        1.34099945      -0.79889969      -0.06328998
C        2.83881899      -0.68042972       0.07670997
N        3.54885871      -1.72551936       0.35537987
N        3.40628877       0.54761977      -0.07612998
C        4.84102815       0.75092968      -0.14448994
C        5.14222790       2.14419924      -0.65554973
O        4.28092846       2.96462883      -0.97081959
H        0.93287964       0.06183998      -0.59951976
H        0.89290967      -0.84659969       0.93271965
H        1.08949963      -1.70983937      -0.61328973
H        2.94546882      -2.54987902       0.44373981
H        2.84672882       1.33398944      -0.40238985
H        5.30633809       0.03983998      -0.83505970
H        5.29073797       0.64497976       0.84748967
H        6.21411745       2.38964917      -0.74087971
