17
Properties=species:S:1:pos:R:3 atomization_energy=-1632.27 smiles=C.C.N.C.C.N.O.H.H.H.H.H.H.H.H.H.H pbc="F F F"
C        0.67332975      -0.37266986      -0.10175996
C        2.19645906      -0.23892991      -0.04123999
N        2.78520895      -1.07023956      -1.10514959
C        2.67057889       1.20626957      -0.22783990
C        2.31868908       2.10983917       0.93529961
N        2.68267894       3.41426875       0.75217973
O        1.76172927       1.75487936       1.96454922
H        0.18966993       0.17125994       0.71508975
H        0.37005984      -1.42238940      -0.01236000
H        0.27247991       0.01421000      -1.04548959
H        2.54951894      -0.62224976       0.92315964
H        2.40949906      -0.78863971      -2.01049925
H        2.48949892      -2.03829921      -0.97386965
H        2.24874916       1.63582935      -1.14503950
H        3.76458856       1.22486954      -0.32226988
H        3.27898866       3.71110846      -0.00740000
H        2.51813902       4.05483839       1.51839943
