18
Properties=species:S:1:pos:R:3 atomization_energy=-1734.67 smiles=C.C.N.C.C.C.O.H.H.H.H.H.H.H.H.H.H.H pbc="F F F"
C        1.01265959       0.03290999       0.02212999
C        2.53501897      -0.00072000       0.03838999
N        3.09674873       1.08703952       0.85671969
C        4.45508800       0.63750975       1.16862957
C        4.33834846      -0.85781966       1.42143950
C        3.09169882      -1.29337950       0.65706977
O        3.42450861      -2.25482908      -0.33693988
H        0.61778975      -0.78661967      -0.58712979
H        0.64897971       0.97431962      -0.40285985
H        0.59491976      -0.06555997       1.03002956
H        2.88980883       0.11243996      -0.99441963
H        2.56645894       1.15765960       1.72653928
H        5.11115785       0.83186966       0.31180986
H        4.86687797       1.16931957       2.03174920
H        5.24370796      -1.39033942       1.11411959
H        4.18668829      -1.03548957       2.49327910
H        2.38007900      -1.75923927       1.34776950
H        4.05946842      -1.84474928      -0.95035963
