16
Properties=species:S:1:pos:R:3 atomization_energy=-1472.15 smiles=C.C.N.N.C.C.H.H.H.H.H.H.H.H.H.H pbc="F F F"
C        1.04056957       0.28511987      -0.64743974
C        2.37167915       0.37264987       0.03019999
N        3.36781861       0.96301959      -0.54755977
N        4.49706835       0.94461960       0.21250992
C        5.43135763      -0.14816994      -0.10177996
C        5.24367819       2.21057901       0.18752993
H        0.77120967      -0.76783973      -0.76174971
H        1.06686955       0.76663970      -1.62784937
H        0.29107987       0.77182971      -0.01833999
H        2.45024905      -0.08531996       1.03338961
H        4.92332801      -1.11541960      -0.02140999
H        6.26525743      -0.16729993       0.60813978
H        5.83086766      -0.05747998      -1.11794960
H        4.58927827       3.03702873       0.48662982
H        5.63463771       2.43082912      -0.81223968
H        6.07647782       2.19027921       0.89881964
