18
Properties=species:S:1:pos:R:3 atomization_energy=-1718.67 smiles=C.C.O.C.C.C.N.H.H.H.H.H.H.H.H.H.H.H pbc="F F F"
C        0.75615969       1.93129928       0.57759975
C        2.16283920       2.49581906       0.50188980
O        3.05115877       1.42641938       0.17646993
C        4.37417849       1.73385928       0.02816999
C        4.98399803       2.92478876       0.11871996
C        6.45487730       3.11224867      -0.06505997
N        6.69373760       3.98317834      -1.20393955
H        0.03643999       2.71004906       0.84662966
H        0.70083972       1.12625950       1.31879947
H        0.46321982       1.49788944      -0.38514985
H        2.43457902       2.92514883       1.47239944
H        2.19791905       3.27032866      -0.27192989
H        4.91658824       0.82085970      -0.19853992
H        4.42402804       3.82718841       0.34324987
H        6.96938729       2.15709917      -0.21480992
H        6.87072729       3.57196847       0.83712970
H        6.35183733       3.52131852      -2.04570917
H        7.69765719       4.09014837      -1.33386945
