14
Properties=species:S:1:pos:R:3 atomization_energy=-1455.67 smiles=C.C.C.C.O.C.N.H.H.H.H.H.H.H pbc="F F F"
C        0.78764968      -0.00492000       0.00782000
C        2.27776902      -0.11558995       0.06233998
C        3.11296883       0.93291962      -0.04907998
C        4.62252796       0.90355963       0.00335000
O        5.09389788      -0.44434982       0.07543997
C        5.19487782       1.60329931      -1.16875952
N        5.63657763       2.14518913      -2.09777912
H        0.35256985      -0.37456985       0.94132964
H        0.39969984      -0.61065975      -0.81679969
H        0.45350983       1.02683959      -0.13982995
H        2.67101896      -1.11840959       0.21820992
H        2.68058887       1.92555925      -0.17704993
H        4.94748822       1.40847939       0.91933966
H        4.88952824      -0.85539968      -0.78278972
