17
Properties=species:S:1:pos:R:3 atomization_energy=-1580.76 smiles=C.C.C.C.N.N.O.H.H.H.H.H.H.H.H.H.H pbc="F F F"
C        1.38944945      -0.56863978       0.16916994
C        2.87614888      -0.53373978      -0.14239994
C        3.48384859       0.82918966       0.17376994
C        4.95584796       0.83638968      -0.18451993
N        5.34935805       1.14901952      -1.38448950
N        5.87125782       0.47450981       0.77675970
O        7.16983723       0.89936967       0.46930980
H        0.97721960      -1.55610945      -0.06124997
H        0.84667968       0.17286993      -0.42591984
H        1.20496956      -0.36199985       1.22823955
H        3.03020872      -0.77698970      -1.20044956
H        3.38682873      -1.31302954       0.43580983
H        3.37210874       1.06072957       1.23915957
H        2.97538874       1.61834935      -0.39191984
H        4.53959828       1.37241949      -1.97444919
H        5.61624781       0.58961980       1.75408931
H        7.12707717       1.00366959      -0.51058981
