14
Properties=species:S:1:pos:R:3 atomization_energy=-1511.0 smiles=C.C.C.C.C.C.N.H.H.H.H.H.H.H pbc="F F F"
C        2.67351906       0.41471982       0.88074964
C        2.32186921       0.08202997      -0.59722979
C        2.66678888       1.48818945      -0.79640968
C        2.49640901       2.67428892      -1.40708942
C        2.99487881       3.60228860      -0.42522983
C        3.37760855       2.88816893       0.71358970
N        3.32432881       1.57867935       0.36752984
H        3.35652880      -0.27632988       1.37985948
H        1.84928923       0.65109974       1.56389942
H        1.30875947      -0.19888993      -0.88126963
H        3.02262869      -0.62503973      -1.06069955
H        1.96780922       2.90350891      -2.32202919
H        2.96024887       4.68221792      -0.49690979
H        3.70298845       3.21182868       1.69290933
