16
Properties=species:S:1:pos:R:3 atomization_energy=-1517.83 smiles=C.C.N.C.O.C.O.H.H.H.H.H.H.H.H.H pbc="F F F"
C        0.92810963       0.09561996      -0.05233998
C        2.42834896      -0.02635999       0.05816998
N        2.95739879      -0.00025000       1.45209939
C        3.18262866      -0.82852968      -0.98853962
O        2.40055896      -1.42966941      -2.03588920
C        3.26110873       0.67252973      -1.00305958
O        4.49010805       1.24948950      -0.52168980
H        0.59204975       0.20002993      -1.09051955
H        0.57547979       0.97571961       0.49765982
H        0.44458982      -0.79175972       0.37088986
H        3.83627839      -0.51728980       1.49995944
H        2.32274909      -0.51571980       2.06456917
H        4.07498831      -1.36321949      -0.68052970
H        2.84494888      -1.32552952      -2.89478884
H        2.74350893       1.19866948      -1.79790929
H        4.37429809       1.46844945       0.42386983
