16
Properties=species:S:1:pos:R:3 atomization_energy=-1514.91 smiles=C.C.C.O.N.C.O.H.H.H.H.H.H.H.H.H pbc="F F F"
C       -0.52066981      -1.68924939       1.29561944
C        0.51067979      -1.16494957       0.30202988
C        1.65894933      -2.15538912       0.14986994
O       -0.08491996      -1.00668962      -0.99452959
N       -0.82782965       0.19734992      -1.01955958
C       -2.15266924       0.02958999      -1.30971946
O       -2.88266887       0.93060966      -1.69850931
H       -1.31459954      -0.95244963       1.45641943
H       -0.06273998      -1.91038922       2.26452920
H       -1.00435959      -2.59611897       0.91660963
H        0.91850962      -0.20578992       0.64601975
H        1.30063945      -3.11556885      -0.23803991
H        2.16518916      -2.32898899       1.10434957
H        2.39335894      -1.77987933      -0.57096981
H       -0.38048986       0.99947963      -1.45016944
H       -2.51282896      -0.99693960      -1.12808953
