20
Properties=species:S:1:pos:R:3 atomization_energy=-1853.35 smiles=C.C.C.O.N.C.C.H.H.H.H.H.H.H.H.H.H.H.H.H pbc="F F F"
C        0.88471963      -0.41263983       0.08748997
C        2.33562909      -0.02959999      -0.21469991
C        2.90768877      -0.93946964      -1.32664950
O        4.24361826      -0.54418976      -1.63957937
N        2.57967908       1.40450946      -0.53372981
C        1.80778932       1.90643923      -1.67304934
C        2.36164898       2.26474923       0.63368977
H        0.48096981       0.16441993       0.92568964
H        0.82358967      -1.47045939       0.36679985
H        0.23246990      -0.26521990      -0.77861969
H        2.93377881      -0.25174990       0.67983970
H        2.31184914      -0.89045966      -2.24420922
H        2.93366880      -1.98343924      -0.99792962
H        4.25233832       0.42450984      -1.49274945
H        2.01602922       1.33343948      -2.58100887
H        2.09760917       2.93939874      -1.89702929
H        0.72926969       1.89390922      -1.49031938
H        2.94979882       1.91853927       1.48914944
H        1.30889951       2.30996901       0.93043965
H        2.69631895       3.28514883       0.41906983
