17
Properties=species:S:1:pos:R:3 atomization_energy=-1648.88 smiles=C.C.N.C.C.N.C.H.H.H.H.H.H.H.H.H.H pbc="F F F"
C       -1.70894927       0.83290965       0.51569980
C       -1.15507951      -0.24216991      -0.37070985
N       -0.39357986      -1.37805947       0.19357993
C        0.98927958      -1.32280952      -0.32185987
C        1.70073929       0.04852998      -0.12706995
N        0.84941968       1.14809952       0.37461984
C       -0.47217982       1.11389956      -0.28925987
H       -2.62925889       1.31457949       0.20395992
H       -1.62573938       0.72198968       1.58933933
H       -1.69487927      -0.46439981      -1.28741943
H       -0.34970986      -1.28392944       1.20761954
H        1.57618934      -2.11107912       0.16164993
H        0.96708963      -1.56147944      -1.39282942
H        2.53154891      -0.07683997       0.57766977
H        2.14563904       0.35760985      -1.08055953
H        0.72375973       1.01082961       1.37670950
H       -0.56830979       1.76082933      -1.15685958
