12
Properties=species:S:1:pos:R:3 atomization_energy=-1240.08 smiles=C.C.C.N.O.C.O.H.H.H.H.H pbc="F F F"
C        5.19904785      -1.57163943       0.82792970
C        4.34955852      -0.54007979       0.77756968
C        3.00511892      -0.70988971       0.19404993
N        2.17116916       0.27386990       0.12839995
O        0.97848964      -0.17136994      -0.46876981
C        0.08906997       0.86366965      -0.57133979
O        0.22427991       2.02952919      -0.23138991
H        6.18785734      -1.44304940       1.25750947
H        4.94503809      -2.55628898       0.45041981
H        4.60469823       0.44406983       1.15407952
H        2.75226887      -1.71760928      -0.18199993
H       -0.82790970       0.46966981      -1.03655958
