14
Properties=species:S:1:pos:R:3 atomization_energy=-1379.27 smiles=C.C.N.O.C.C.O.H.H.H.H.H.H.H pbc="F F F"
C        1.04944961      -0.01350999       0.02614999
C        2.53973908       0.01170000      -0.03029999
N        3.26046881      -1.05939953      -0.11508996
O        4.61544805      -0.64672974      -0.08855997
C        4.65567823       0.75862970      -0.35791987
C        3.30264876       1.29480946       0.05701998
O        2.83821895       2.33165916      -0.77862973
H        0.68215970      -1.04133962      -0.03354999
H        0.64272973       0.56101976      -0.80988966
H        0.71535975       0.43415984       0.96565961
H        4.86401805       0.90923966      -1.42287943
H        5.46640796       1.21536952       0.21751992
H        3.29816862       1.63237935       1.09805958
H        2.88887874       2.02541922      -1.70186936
