17
Properties=species:S:1:pos:R:3 atomization_energy=-1578.06 smiles=C.C.C.C.N.N.O.H.H.H.H.H.H.H.H.H.H pbc="F F F"
C        1.90845927      -0.26257990       1.50634935
C        2.09855920       0.29235989       0.10710996
C        2.91867881       1.56720938       0.14865993
C        2.17004906       2.87676886       0.37412985
N        1.81098925       3.44179859      -0.92972966
N        4.20722831       1.46712937      -0.02232999
O        4.83758787       2.71441892       0.02051999
H        1.32294944      -1.18641955       1.47385943
H        1.38441948       0.45244982       2.14870915
H        2.87315875      -0.48405982       1.97487916
H        1.12850953       0.50297981      -0.35476986
H        2.61235901      -0.44459982      -0.51987979
H        2.78438887       3.58088863       0.94238962
H        1.26196955       2.68265900       0.95256961
H        2.67923890       3.57663861      -1.45370939
H        1.42766943       4.37508839      -0.78868967
H        5.77463765       2.47630906      -0.11374995
