20
Properties=species:S:1:pos:R:3 atomization_energy=-1869.38 smiles=C.C.C.C.O.C.N.H.H.H.H.H.H.H.H.H.H.H.H.H pbc="F F F"
C        0.99109958      -0.03697998       0.19388992
C        2.47781901      -0.04203999      -0.14638995
C        3.06893879       1.33960949      -0.49185979
C        2.35163900       1.99164922      -1.67781929
O        2.90794892       2.20374916       0.64156976
C        4.59348816       1.19481954      -0.75714971
N        5.26083772       2.50484898      -0.83363964
H        0.68231974      -1.03400958       0.52385978
H        0.38301986       0.22175990      -0.67685973
H        0.76710967       0.66753975       0.99929959
H        2.64934900      -0.74030969      -0.97563962
H        3.00615877      -0.44604981       0.72792969
H        2.41780908       1.37063941      -2.57712902
H        2.76820888       2.97880884      -1.90691929
H        1.29431943       2.17295920      -1.45414946
H        3.64837866       2.84272886       0.57205975
H        4.78043786       0.62499973      -1.67396934
H        5.05688795       0.65294977       0.07552997
H        4.98948826       2.97286871      -1.69892932
H        6.26803761       2.35355899      -0.91257965
