15
Properties=species:S:1:pos:R:3 atomization_energy=-1432.42 smiles=C.C.C.N.C.N.O.H.H.H.H.H.H.H.H pbc="F F F"
C        0.81333966      -0.23513991      -0.48908979
C        2.24183907      -0.23372990      -0.00905000
C        2.87926895      -1.38126950       0.26065989
N        2.94747889       0.94372963       0.03337999
C        2.38299898       1.94640926       0.62601978
N        2.95794887       3.18878882       0.74618970
O        4.35582845       3.15014883       0.64288977
H        0.69846970       0.42152984      -1.35669950
H        0.13980995       0.10866996       0.30293989
H        0.48674980      -1.23678954      -0.79030970
H        2.38364898      -2.34252908       0.19045993
H        3.92478838      -1.37632948       0.55053981
H        1.38311947       1.90954921       1.09206962
H        2.62398896       3.77933859       1.50405944
H        4.51294806       2.35097915       0.09016997
