21
Properties=species:S:1:pos:R:3 atomization_energy=-2046.22 smiles=C.C.C.C.C.C.C.H.H.H.H.H.H.H.H.H.H.H.H.H.H pbc="F F F"
C        1.15961958       3.06805891      -0.95137962
C        2.62960888       3.06866879      -0.56897979
C        3.20217878       1.65161936      -0.53052981
C        4.64712823       1.66089934      -0.12915995
C        5.58484771       0.59907976      -0.64893972
C        5.71251773       2.02026926      -1.13517953
C        6.87160742       2.86031888      -0.72028973
H        0.77640972       4.09291846      -0.98557958
H        0.56498980       2.50711896      -0.22343991
H        1.01059962       2.61703900      -1.93773928
H        2.75105894       3.54720872       0.41095984
H        3.19017866       3.67711844      -1.28865951
H        3.07661875       1.17829953      -1.51265940
H        2.64172885       1.04398960       0.19030992
H        4.77890824       1.98095921       0.89951968
H        5.20255778      -0.13913995      -1.34462949
H        6.33681756       0.21214992       0.02977999
H        5.40712778       2.23525903      -2.15271920
H        7.23186731       2.60054889       0.28106989
H        6.58727753       3.91650838      -0.71622972
H        7.70056707       2.73217901      -1.42345941
