18
Properties=species:S:1:pos:R:3 atomization_energy=-1716.2 smiles=C.C.O.C.C.C.N.H.H.H.H.H.H.H.H.H.H.H pbc="F F F"
C        0.96110964      -0.01427999       0.03405999
C        2.47957902      -0.03161999      -0.01998999
O        2.89495891      -0.04216998      -1.41281949
C        3.17742887       1.03952958       0.87114963
C        4.21438846      -0.04052998       1.25575955
C        3.14579864      -1.09983953       0.91322965
N        3.76032845      -2.15527910       0.10727996
H        0.59288976       0.00119000       1.06552954
H        0.54491976      -0.90136964      -0.45507983
H        0.56411977       0.87014964      -0.47516981
H        3.82845840       0.23282992      -1.40087942
H        2.57492895       1.39401942       1.71560930
H        3.58737859       1.90654924       0.34513986
H        5.10421823      -0.02881999       0.61399973
H        4.53965833      -0.02020999       2.29992901
H        2.55224891      -1.44246942       1.76660936
H        3.91681850      -1.86629925      -0.86180965
H        3.15149880      -2.96874890       0.00910999
