14
Properties=species:S:1:pos:R:3 atomization_energy=-1427.02 smiles=C.C.C.O.C.N.O.H.H.H.H.H.H.H pbc="F F F"
C        1.00679963      -0.08170997       0.00026000
C        2.50020912       0.02523999      -0.28795989
C        2.90461891      -0.88051963      -1.42866942
O        2.30553909      -1.91002927      -1.72932931
C        2.88505895       1.46311945      -0.55965975
N        2.87057892       2.29188898       0.52427978
O        3.21250871       1.88710927      -1.66181934
H        0.70776974       0.56812976       0.82907970
H        0.72900973      -1.10822955       0.26313990
H        0.41602983       0.20709992      -0.87689963
H        3.07337881      -0.30882987       0.58603978
H        3.86438860      -0.63610975      -1.91875930
H        2.64669902       1.98771916       1.46184947
H        3.13310865       3.25927882       0.38047986
