14
Properties=species:S:1:pos:R:3 atomization_energy=-1368.78 smiles=C.C.O.N.C.C.O.H.H.H.H.H.H.H pbc="F F F"
C        0.25054991      -0.55216980       0.08458997
C        1.73461930      -0.24648990       0.09195997
O        1.90642926       1.16113950       0.25614989
N        3.28000859       1.44253944       0.30224988
C        3.43025873       2.71778881       0.42740982
C        4.81015795       3.28324877       0.50470979
O        4.96561822       4.49011814       0.60352975
H        0.07310997      -1.62347937      -0.04578998
H       -0.25154990      -0.00946000      -0.72332969
H       -0.21414991      -0.22862991       1.02204959
H        2.18814903      -0.56040980      -0.85441969
H        2.22238912      -0.77481971       0.91840963
H        2.60856899       3.44973870       0.48369981
H        5.62515763       2.54428912       0.46737982
