18
Properties=species:S:1:pos:R:3 atomization_energy=-1754.43 smiles=C.C.C.C.O.N.C.H.H.H.H.H.H.H.H.H.H.H pbc="F F F"
C        1.17737954      -0.45495981       1.02035960
C        2.63731886      -0.71044969       0.68380976
C        3.24364866       0.45187983      -0.09738996
C        4.70270823       0.21562991      -0.44070982
O        5.32757783      -0.78678968      -0.11440996
N        5.25448806       1.25348946      -1.16305949
C        6.65073733       1.25049946      -1.51754945
H        0.76344973      -1.30064954       1.57822944
H        0.58228977      -0.32384988       0.11102995
H        1.06824955       0.44384983       1.63553942
H        2.71781884      -1.63534941       0.10016996
H        3.19950886      -0.87154964       1.61143939
H        3.17600875       1.37321950       0.49309981
H        2.69115903       0.60183976      -1.03243958
H        4.72958807       2.11189920      -1.26628947
H        6.94971706       0.25963991      -1.86979921
H        7.23719706       1.51477935      -0.63381978
H        6.81209711       1.99054919      -2.30455903
