15
Properties=species:S:1:pos:R:3 atomization_energy=-1489.4 smiles=C.C.O.C.C.N.N.H.H.H.H.H.H.H.H pbc="F F F"
C        3.30698860      -0.79035966       1.81430930
C        2.98396876      -0.30523989       0.42533982
O        2.31771912      -0.98953961      -0.35278985
C        3.45676865       1.07405960       0.04068999
C        4.95343819       1.22673957       0.10525996
N        5.50958789       2.10251916       0.98479963
N        5.74368771       0.55206975      -0.66291976
H        4.38931836      -0.83313965       1.95681918
H        2.89865885      -1.79567931       1.95469922
H        2.85427882      -0.12046995       2.54989895
H        2.96717890       1.80222932       0.69561975
H        3.13674878       1.28207947      -0.98681960
H        4.99963803       2.95534885       1.18171951
H        6.49160765       2.26663920       0.77852967
H        5.21270806      -0.06972997      -1.28692953
