18
Properties=species:S:1:pos:R:3 atomization_energy=-1704.91 smiles=C.C.O.N.C.C.C.H.H.H.H.H.H.H.H.H.H.H pbc="F F F"
C        1.33620945       3.49131861       1.28236953
C        2.51049893       2.56934889       1.02189958
O        3.62048849       3.35806877       0.59544978
N        4.70021823       2.50338900       0.34000987
C        5.78340768       3.17244886       0.08483996
C        5.87603747       4.67842791       0.06608997
C        7.03117716       2.40070910      -0.26137990
H        0.47115980       2.92858886       1.64288932
H        1.05531959       4.02304844       0.36776984
H        1.59955938       4.25121848       2.02467926
H        2.25332922       1.84206927       0.24326990
H        2.77757895       2.03418924       1.94046925
H        5.26377789       5.12243806       0.85440966
H        5.54250804       5.04426786      -0.90841965
H        6.91222720       4.98906787       0.22564991
H        6.83380719       1.32530949      -0.26597989
H        7.80677683       2.61885906       0.47795981
H        7.38118686       2.70501883      -1.25143952
