15
Properties=species:S:1:pos:R:3 atomization_energy=-1464.53 smiles=C.N.C.C.C.C.H.H.H.H.H.H.H.H.H pbc="F F F"
C        1.01248958      -0.02342999      -0.01301000
N        2.46554915       0.01195000       0.04740998
C        2.96069877       1.38567949       0.00000000
C        4.40469846       1.38567949       0.00000000
C        5.59485769       1.38567949       0.00000000
C        7.03885712       1.38567949       0.00000000
H        0.67091973      -1.06223952       0.03109999
H        0.63698975       0.41427982      -0.94376962
H        0.56741976       0.50517979       0.83625966
H        2.85271891      -0.50032979      -0.74417969
H        2.59157903       1.94478929       0.86748963
H        2.59346899       1.89136925      -0.90092964
H        7.43294707       2.40651903      -0.01178999
H        7.43287692       0.86501969      -0.87818967
H        7.43288701       0.88542962       0.88996963
