16
Properties=species:S:1:pos:R:3 atomization_energy=-1589.06 smiles=C.C.C.N.C.C.O.H.H.H.H.H.H.H.H.H pbc="F F F"
C        2.53070890      -0.53382980      -1.51760938
C        2.43045895       0.06801997      -0.12432995
C        3.40851863       1.22256954       0.04188998
N        2.98414893       2.46730891      -0.64085976
C        3.07737877       3.30013882       0.57212977
C        3.29283862       2.00395920       1.35961948
O        3.34323876       1.71688938       2.53636895
H        1.85095928      -1.38633947      -1.61297937
H        3.54830863      -0.88322967      -1.72159926
H        2.26713906       0.19858992      -2.28739899
H        2.66107887      -0.71163975       0.61127979
H        1.39854940       0.38768985       0.06517997
H        4.44744842       0.94324963      -0.17255993
H        2.04126916       2.42988894      -1.03125961
H        3.93561844       3.97609842       0.59141974
H        2.16208927       3.83718856       0.83031966
