16
Properties=species:S:1:pos:R:3 atomization_energy=-1615.66 smiles=C.C.C.C.C.C.H.H.H.H.H.H.H.H.H.H pbc="F F F"
C        0.94268964       0.00024000       0.95586960
C        0.28001988      -1.01268961      -0.03053998
C        0.77001968      -0.01521999      -1.12675962
C        0.29918990       1.00902961      -0.04661998
C       -1.20553958       0.77904967       0.07917997
C       -1.21993949      -0.75242973       0.09131997
H        2.03786924      -0.00995999       0.99033963
H        0.55972977       0.01195999       1.98058917
H        0.64570976      -2.03826919      -0.05317998
H        0.22364991      -0.01762000      -2.07478922
H        1.84476922      -0.02696999      -1.34104941
H        0.68406972       2.02709924      -0.08601997
H       -1.61200941       1.19941954       1.00408960
H       -1.75887932       1.18669952      -0.77203971
H       -1.78074924      -1.16296953      -0.75353973
H       -1.63442941      -1.15028951       1.02260958
