18
Properties=species:S:1:pos:R:3 atomization_energy=-1720.2 smiles=C.C.N.C.O.C.C.H.H.H.H.H.H.H.H.H.H.H pbc="F F F"
C        1.09097955       0.11296996       0.22389991
C        2.55238895      -0.06733997      -0.17970993
N        2.63756892      -0.52942977      -1.57274944
C        3.32137880       1.23314954      -0.07035997
O        3.07195869       2.17615926      -1.13094958
C        3.64310847       1.83294926       1.27187949
C        4.73996797       1.22937946       0.44076981
H        1.01365957       0.43428982       1.26832956
H        0.53601978      -0.82596966       0.12163995
H        0.59187974       0.87248963      -0.38903985
H        3.00751884      -0.82720967       0.46587983
H        2.03091916       0.06476997      -2.13888918
H        2.22164904      -1.45856942      -1.62978942
H        3.39205855       1.78635933      -1.96504922
H        3.33691862       1.30349949       2.16565925
H        3.60658857       2.91257895       1.36131943
H        5.45079774       1.90192931      -0.02489999
H        5.16942820       0.28944988       0.76574973
