18
Properties=species:S:1:pos:R:3 atomization_energy=-1721.94 smiles=C.C.O.C.C.C.N.H.H.H.H.H.H.H.H.H.H.H pbc="F F F"
C        3.93645845      -0.95680960      -1.01480958
C        2.88410892      -0.23478991      -0.18186993
O        2.74977886      -0.90756967       1.06625954
C        3.13591886       1.21302953       0.12787995
C        4.24532856       1.92580919      -0.13315995
C        4.40938829       3.37187862       0.20402991
N        5.43239774       3.50944861       1.22727956
H        4.06822835      -0.48394981      -1.99302922
H        3.63904846      -1.99939920      -1.17355949
H        4.90406807      -0.98821960      -0.50134981
H        1.92087926      -0.31219988      -0.69822973
H        3.58662866      -0.77535970       1.54491944
H        2.30382904       1.70841937       0.62661976
H        5.09956777       1.46248938      -0.62075975
H        3.47169859       3.81738837       0.55334977
H        4.71596824       3.91635849      -0.69532975
H        5.09554813       3.07021887       2.08338917
H        5.54595791       4.49682813       1.44989944
