18
Properties=species:S:1:pos:R:3 atomization_energy=-1729.98 smiles=C.N.C.C.C.O.C.H.H.H.H.H.H.H.H.H.H.H pbc="F F F"
C        1.09089956      -0.00245000      -0.07569997
N        2.53693896      -0.02941999       0.10152996
C        3.01422883       1.07769961       0.93256964
C        4.43882828       0.65150972       1.23361951
C        4.33742846      -0.86019965       1.41296950
O        5.43406767      -1.50552940       0.78019967
C        2.99279884      -1.25110947       0.78177970
H        0.76802967      -0.83814969      -0.70490970
H        0.78582968       0.91843966      -0.58355975
H        0.55173977      -0.06128998       0.87745968
H        2.44023907       1.16899949       1.86328932
H        2.98395892       2.03442921       0.40219984
H        5.10732797       0.90905963       0.40217984
H        4.82743810       1.14142952       2.13263919
H        4.35095846      -1.12806959       2.47574914
H        5.36597810      -1.30447955      -0.17209993
H        3.08694868      -2.08108917       0.07322997
H        2.29578901      -1.54325935       1.57859935
