12
Properties=species:S:1:pos:R:3 atomization_energy=-1274.45 smiles=C.C.C.N.O.C.C.H.H.H.H.H pbc="F F F"
C        1.05803959      -0.04800998      -0.00940000
C        2.25745913       0.01799999      -0.01478999
C        3.68347844       0.09900996      -0.02015999
N        4.32484823      -1.01439960      -0.08863996
O        5.69973766      -0.65880972      -0.05844998
C        5.78411774       0.74376972      -0.35730986
C        4.47093844       1.33252945       0.09340996
H       -0.00484000      -0.12125995      -0.00427000
H        5.93215746       0.85599966      -1.43714940
H        6.63855730       1.18262954       0.16535993
H        4.11328841       2.14239911      -0.54409981
H        4.49640825       1.64917931       1.13984955
