14
Properties=species:S:1:pos:R:3 atomization_energy=-1471.49 smiles=C.C.C.C.N.C.O.H.H.H.H.H.H.H pbc="F F F"
C        0.95686965       0.03882998      -0.03068999
C        2.48075892       0.13028995      -0.08737997
C        3.05851877      -0.40801983      -1.40067945
C        2.87253877      -1.85862927      -1.51907946
N        2.71639897      -3.00703890      -1.59530936
C        2.87638884       1.57878936       0.10443996
O        3.54446865       2.22029907      -0.69971975
H        0.57345975       0.47897980       0.89666966
H        0.61675973      -1.00072961      -0.06899998
H        0.49644979       0.58134977      -0.86400967
H        2.90381877      -0.42352984       0.76031969
H        4.13275828      -0.19101992      -1.45444948
H        2.59636903       0.09702996      -2.25764914
H        2.54465904       2.04115914       1.05092959
