14
Properties=species:S:1:pos:R:3 atomization_energy=-1451.06 smiles=C.C.N.C.O.C.C.H.H.H.H.H.H.H pbc="F F F"
C        0.93448963      -0.27101989       0.08471997
C        2.42691900       0.00303000       0.12958995
N        2.72317886       1.39344940      -0.12964995
C        2.84432890       1.88640930      -1.40394941
O        2.75807880       1.22428956      -2.42804894
C        3.08834887       3.30896865      -1.48787946
C        3.29239881       4.49127836      -1.55918941
H        0.73418971      -1.32652952       0.29260989
H        0.51666979      -0.02996999      -0.89822963
H        0.40433983       0.33243987       0.82901965
H        2.94412894      -0.61958975      -0.60812975
H        2.82514895      -0.23582991       1.12067957
H        2.75382903       2.04601917       0.64227976
H        3.47474851       5.53797768      -1.63760942
