14
Properties=species:S:1:pos:R:3 atomization_energy=-1380.76 smiles=C.C.C.N.O.C.O.H.H.H.H.H.H.H pbc="F F F"
C        0.94538965      -0.08952997       0.04593998
C        2.44915897      -0.16872994       0.04780998
C        3.05363869      -1.36525946       0.14120995
N        3.16490870       1.00996961      -0.04800998
O        4.57911840       0.88557964      -0.04338998
C        2.70963902       2.30591910      -0.14909994
O        3.44878868       3.28549881      -0.22944990
H        0.58932975       0.50759981       0.89204966
H        0.48073981      -1.07828956       0.12917995
H        0.58421978       0.36087984      -0.88461964
H        2.48647902      -2.28746914       0.21613992
H        4.13508831      -1.46567948       0.14605994
H        4.86073825       1.82158931      -0.11939995
H        1.61512935       2.40290918      -0.15281995
