16
Properties=species:S:1:pos:R:3 atomization_energy=-1652.22 smiles=C.N.C.C.C.C.C.H.H.H.H.H.H.H.H.H pbc="F F F"
C        0.39699983       1.36258942       0.79338972
N        1.31587950       0.34471985       0.18382993
C        0.43436984      -0.39655983      -0.75407972
C       -0.46114982       0.71638970      -1.29059943
C       -0.95550965       1.09086953       0.10134996
C       -1.44571944      -0.26496990       0.56364980
C       -0.57596975      -1.16035954       0.06529998
H        0.76281972       2.36880913       0.56028976
H        0.35301985       1.24120950       1.88100928
H        2.02253924       0.83784966      -0.35999987
H        0.95470963      -0.98496964      -1.51208938
H        0.08919996       1.52111943      -1.79251924
H       -1.25593947       0.35795987      -1.95721925
H       -1.69221933       1.89322931       0.14192994
H       -2.26073918      -0.45798981       1.24247949
H       -0.55701980      -2.22156905       0.25520990
