13
Properties=species:S:1:pos:R:3 atomization_energy=-1369.93 smiles=C.C.N.C.N.C.O.H.H.H.H.H.H pbc="F F F"
C        1.04724960      -0.01322000      -0.11389996
C        2.54863906      -0.00726000       0.08738996
N        3.14212873      -1.25491954      -0.48242979
C        3.99241845      -0.83652965      -1.35694944
N        4.10436849       0.48735981      -1.52025936
C        3.22272863       1.10194952      -0.69600972
O        3.02046873       2.30213918      -0.62502976
H        0.59692977       0.89908964       0.29076989
H        0.59153978      -0.87427967       0.38575986
H        0.78603969      -0.06790997      -1.17682958
H        2.81939882       0.07416997       1.14495951
H        4.62745801      -1.48134938      -1.97992919
H        4.69180802       0.98018960      -2.17253907
