14
Properties=species:S:1:pos:R:3 atomization_energy=-1361.93 smiles=C.C.O.N.C.C.O.H.H.H.H.H.H.H pbc="F F F"
C        1.27015947      -0.26081990       0.45539982
C        2.72925903       0.05809998       0.17122992
O        2.96155872      -0.13777995      -1.22395951
N        4.34326841      -0.22938992      -1.45857938
C        4.53578808      -0.37670985      -2.72619901
C        3.07275884       1.49363942       0.52622980
O        2.33626900       2.26136901       1.14296950
H        1.02534957      -0.11165996       1.51193937
H        1.04576961      -1.29880954       0.18735993
H        0.60550979       0.37218986      -0.14371995
H        3.37200857      -0.60824973       0.75877971
H        5.56026762      -0.46181982      -3.11971869
H        3.71162852      -0.41903983      -3.45802854
H        4.09073832       1.81431927       0.24649990
