17
Properties=species:S:1:pos:R:3 atomization_energy=-1624.83 smiles=C.C.C.N.N.C.O.H.H.H.H.H.H.H.H.H.H pbc="F F F"
C        1.35022947      -0.56953978       0.94565965
C        1.90208929      -0.06829998      -0.38942986
C        2.27121901      -1.23143949      -1.33772949
N        1.09363962      -1.95720928      -1.83802932
N        0.93359966       0.80260971      -1.04165958
C        0.78628968       2.12441924      -0.72753971
O        1.46101943       2.74518896       0.08237996
H        1.17097953       0.26682990       1.63070942
H        2.05745923      -1.25255949       1.42852938
H        0.39663985      -1.09330958       0.82029965
H        2.80689883       0.51825979      -0.18808993
H        2.95126890      -1.93087928      -0.83815965
H        2.80150879      -0.82367969      -2.20642917
H        0.64851972      -2.44865910      -1.06264956
H        1.40773943      -2.68586891      -2.47996912
H        0.28235988       0.35463985      -1.67783935
H       -0.02818999       2.59555904      -1.30205944
