17
Properties=species:S:1:pos:R:3 atomization_energy=-1569.1 smiles=C.C.N.O.C.C.N.H.H.H.H.H.H.H.H.H.H pbc="F F F"
C        1.22917948       0.37227985      -0.14654994
C        2.72344885       0.35575985      -0.09207997
N        3.39953866       1.45494947      -0.13405995
O        4.76704816       1.14504960      -0.05478998
C        5.50701764       2.36853914      -0.00968000
C        6.99616721       2.03029918       0.07489997
N        7.84755710       3.21970874       0.11461995
H        0.89848966      -0.23447991      -0.99349963
H        0.85190969       1.39232943      -0.25519990
H        0.83743969      -0.06812998       0.77353970
H        3.21135884      -0.63139974      -0.00657000
H        5.19539813       2.94817885       0.86781968
H        5.29765790       2.94990884      -0.91604964
H        7.27973708       1.40575938      -0.78011968
H        7.18030696       1.42469950       0.96932964
H        7.72853699       3.75409865      -0.74588968
H        8.82516661       2.93059894       0.13645994
