17
Properties=species:S:1:pos:R:3 atomization_energy=-1604.42 smiles=C.C.C.N.N.C.O.H.H.H.H.H.H.H.H.H.H pbc="F F F"
C        0.94895963      -0.17740993       0.11675996
C        2.44819910       0.02920999      -0.10355995
C        2.98764876      -0.94253963      -1.15345954
N        2.74639888       1.43098948      -0.42525983
N        2.46118912       1.90136926      -1.73757928
C        2.92334895       2.38632899       0.57134976
O        2.96927880       3.59783848       0.38578986
H        0.57403980       0.48780982       0.90242962
H        0.73801972      -1.20875958       0.41886982
H        0.37796986       0.03304999      -0.79445966
H        2.95328881      -0.19316992       0.84490964
H        2.48348915      -0.82142965      -2.11854926
H        2.84364886      -1.97916917      -0.83013968
H        4.05981841      -0.78435966      -1.31360952
H        3.35330880       2.20226924      -2.14085913
H        1.94571926       2.78398893      -1.62823935
H        3.03693890       1.94010917       1.57258933
