15
Properties=species:S:1:pos:R:3 atomization_energy=-1465.22 smiles=C.N.C.C.C.C.H.H.H.H.H.H.H.H.H pbc="F F F"
C        1.03385957       0.08465997      -0.24085990
N        2.45370901      -0.03317999       0.07516997
C        3.18190876      -0.89700967      -0.84394965
C        3.32018881       0.60856975      -0.90990966
C        4.54477814       1.22725950      -0.40221984
C        5.71816794       1.29094955      -1.04653960
H        0.64628974       1.02773960       0.15839994
H        0.48272982      -0.73009974       0.24017990
H        0.80460969       0.05563998      -1.31327947
H        2.63630903      -1.39927939      -1.63309937
H        3.98554848      -1.47699944      -0.40587984
H        2.85016885       1.12949956      -1.73789936
H        4.48029842       1.67760935       0.58724978
H        5.84454754       0.86118967      -2.03406926
H        6.57576719       1.77296924      -0.58868977
