12
Properties=species:S:1:pos:R:3 atomization_energy=-1264.07 smiles=C.C.C.N.O.C.O.H.H.H.H.H pbc="F F F"
C        1.00259958      -0.00881999      -0.08289996
C        2.51128898       0.01767999       0.03522999
C        3.11958874      -1.16488952      -0.61020978
N        3.91699841      -0.88928966      -1.58160941
O        3.94747851       0.53328981      -1.71966931
C        3.12203888       1.10775958      -0.78014971
O        2.92397877       2.30549922      -0.64932977
H        0.56298976       0.89051965       0.36061985
H        0.58555979      -0.88311966       0.42772984
H        0.68022974      -0.05173998      -1.12970950
H        2.85030890       0.07447997       1.07264957
H        2.90413898      -2.18417910      -0.26071990
