12
Properties=species:S:1:pos:R:3 atomization_energy=-1239.23 smiles=C.N.C.C.C.N.H.H.H.H.H.H pbc="F F F"
C        0.89899962       0.02131999      -0.18481994
N        2.32887897       0.02872999       0.04268998
C        3.10962872       1.15858956       0.03414999
C        4.44678832       1.20939949       0.00000000
C        5.14978774       2.42703911       0.00000000
N        5.72528772       3.42383866       0.00000000
H        0.49045980      -0.96495964       0.05442998
H        0.67792974       0.24207990      -1.23368953
H        0.39743984       0.76079968       0.44785982
H        2.80729878      -0.84717967      -0.15777994
H        2.52695901       2.08051916       0.06862997
H        5.03167804       0.29850989      -0.02478999
