14
Properties=species:S:1:pos:R:3 atomization_energy=-1370.03 smiles=C.C.N.C.C.N.H.H.H.H.H.H.H.H pbc="F F F"
C        0.75255968      -0.47463983       0.06600997
C        2.23957919      -0.19423992      -0.09153996
N        2.51744889       1.19636948       0.26819989
C        3.93958836       1.54296943       0.09802996
C        4.84791831       0.90521965       1.07446951
N        5.55126797       0.39926984       1.84798922
H        0.53369979      -1.51177939      -0.20794991
H        0.15569994       0.17772993      -0.58041980
H        0.42711982      -0.32390988       1.10094954
H        2.52628907      -0.38110984      -1.13261950
H        2.79938896      -0.88674963       0.54669977
H        2.24551907       1.36040940       1.23862954
H        4.02646854       2.63031894       0.20499992
H        4.26086813       1.31267943      -0.92432964
