13
Properties=species:S:1:pos:R:3 atomization_energy=-1340.28 smiles=C.C.N.C.N.C.O.H.H.H.H.H.H pbc="F F F"
C        0.73550972       0.27821988      -0.14066995
C        2.03481919      -0.01773999      -0.00396000
N        2.62122896      -1.25326955       0.17205994
C        2.07562923      -2.49254910       0.23438990
N        2.71380904      -3.59512869       0.41172983
C        2.99082890       1.13690952      -0.04274998
O        4.19919837       0.96098965       0.08059996
H        0.37837986       1.29478952      -0.27388990
H       -0.02652999      -0.49373982      -0.12148995
H        3.63451861      -1.18223956       0.26308989
H        0.98016960      -2.52151900       0.11704996
H        3.71584851      -3.41266872       0.50496979
H        2.55037888       2.13765906      -0.18654993
