11
Properties=species:S:1:pos:R:3 atomization_energy=-1203.34 smiles=C.C.O.C.N.C.N.H.H.H.H pbc="F F F"
C        1.12992953      -0.01458999       0.08080997
C        2.45204892      -0.00881000      -0.11186996
O        3.16666871      -1.13526961      -0.46303981
C        4.39770838      -0.55369981      -0.53585980
N        4.56053824       0.69915970      -0.29262989
C        3.32656875       1.16606954       0.00826999
N        3.11503870       2.38482914       0.31573986
H        0.58103978       0.88010966       0.35038986
H        0.56368980      -0.93328961      -0.03310999
H        5.18641817      -1.26605947      -0.81606969
H        2.12594913       2.53900908       0.51236978
