18
Properties=species:S:1:pos:R:3 atomization_energy=-1732.56 smiles=C.C.C.O.C.C.N.H.H.H.H.H.H.H.H.H.H.H pbc="F F F"
C        1.04350961      -0.00089000      -0.15595994
C        2.54975890      -0.00135000       0.04456999
C        3.02329888       1.07066953       1.01083958
O        4.32587825       0.66109976       1.44490946
C        4.41962839      -0.76759969       1.30203951
C        3.09980874      -1.26002950       0.69990975
N        3.23968883      -2.38528914      -0.22307991
H        0.73587970      -0.79940971      -0.83759967
H        0.70998970       0.95216960      -0.57683979
H        0.51549980      -0.14943994       0.79432971
H        3.04257875       0.15626995      -0.92450962
H        2.38136917       1.14606952       1.89401923
H        3.08963879       2.05577921       0.54044977
H        5.28094802      -0.97791963       0.65768975
H        4.60865832      -1.21544951       2.28276922
H        2.44043916      -1.57103938       1.51971937
H        3.87913838      -2.13473909      -0.97893961
H        2.34838897      -2.57275890      -0.67611971
