18
Properties=species:S:1:pos:R:3 atomization_energy=-1711.1 smiles=C.N.C.C.C.O.C.H.H.H.H.H.H.H.H.H.H.H pbc="F F F"
C        1.08133961      -0.00799000       0.12803995
N        2.53214896       0.01938999      -0.01848999
C        3.13137867       1.03834962       0.88771965
C        4.26270813       0.00369000       1.18087950
C        4.76654804      -0.03711999       2.61042892
O        5.39907790       0.05257998       0.27810989
C        3.16361877      -1.04210961       0.81562969
H        0.67081974      -0.87366966      -0.40319983
H        0.64489977       0.88847968      -0.32583986
H        0.74272974      -0.05849998       1.16996958
H        2.53251913       1.31733948       1.76450933
H        3.45424862       1.95263919       0.38053985
H        3.94177835      -0.07225997       3.32989877
H        5.36806791       0.84985969       2.83581878
H        5.39210801      -0.92041964       2.77665896
H        4.97979823       0.07656997      -0.60297979
H        3.51353864      -1.90843920       0.24573991
H        2.57438896      -1.40035950       1.66998932
