13
Properties=species:S:1:pos:R:3 atomization_energy=-1330.68 smiles=C.C.N.O.C.C.N.H.H.H.H.H.H pbc="F F F"
C        0.95490960       0.08455997      -0.00522000
C        2.43027904      -0.01388000      -0.00170000
N        3.18299883       1.09601961      -0.00052000
O        4.49775823       0.65677972       0.00242000
C        4.52163835      -0.69957970       0.00291000
C        3.23869868      -1.17461954       0.00043000
N        2.85990884      -2.46413912       0.00003000
H        0.61767973       1.12691960       0.00357000
H        0.53628978      -0.41173982       0.87653968
H        0.54194976      -0.39521985      -0.89873965
H        5.50243783      -1.14924952       0.00502000
H        3.52375856      -3.23291878       0.00524000
H        1.88668926      -2.75349898       0.00173000
