17
Properties=species:S:1:pos:R:3 atomization_energy=-1608.5 smiles=C.C.O.C.C.N.N.H.H.H.H.H.H.H.H.H.H pbc="F F F"
C        2.24407901       3.48551852      -1.75908926
C        3.15970865       2.51475905      -1.04029957
O        4.43300801       3.13301882      -0.87494968
C        5.33361813       2.28472907      -0.16571994
C        6.69990761       2.96789879      -0.07463997
N        6.75452723       4.32997812      -0.07033997
N        7.80439684       2.29616902       0.00269000
H        1.25910950       3.04052881      -1.92966922
H        2.67164903       3.77926844      -2.72405899
H        2.11949929       4.40319810      -1.17355949
H        3.26919871       1.60025935      -1.63284932
H        2.73805883       2.26125899      -0.06173997
H        5.44457777       1.32748951      -0.68675970
H        4.96893789       2.11537923       0.85317967
H        5.97559780       4.76763811      -0.55598978
H        7.66647712       4.68333828      -0.33454986
H        7.61664725       1.28866948      -0.00299000
