17
Properties=species:S:1:pos:R:3 atomization_energy=-1564.39 smiles=C.C.N.O.C.C.N.H.H.H.H.H.H.H.H.H.H pbc="F F F"
C        4.24981854      -1.20645958       0.69593970
C        3.19999864      -0.16969993       0.32676986
N        3.79989854       1.13146950       0.05290998
O        4.20679833       1.81279923       1.21333952
C        3.27943882       2.88131890       1.41373949
C        4.62027817       1.34459946      -1.02467957
N        5.53622802       2.24433917      -1.14007955
H        3.77165863      -2.16375920       0.92546961
H        4.82664830      -0.89356964       1.57159943
H        4.95213818      -1.36936943      -0.12816995
H        2.47502898      -0.07572997       1.14394955
H        2.64088884      -0.50652980      -0.55377980
H        3.60755853       3.45697859       2.28300919
H        2.27815912       2.48745907       1.61361940
H        3.25832879       3.54814865       0.54452978
H        4.42884807       0.65201974      -1.86215926
H        5.55310797       2.74703880      -0.24508990
