17
Properties=species:S:1:pos:R:3 atomization_energy=-1605.95 smiles=C.C.C.O.N.N.C.H.H.H.H.H.H.H.H.H.H pbc="F F F"
C        0.94400965       0.17410994       1.23399951
C        2.25251899      -0.04295999       0.49595980
C        3.00117877       1.25244947       0.25984989
O        2.56245899       2.36524899       0.54129982
N        4.24828840       1.04703959      -0.31925988
N        5.03793787       2.15845923      -0.68335973
C        6.01876764       2.44557915       0.36202984
H        0.43164983      -0.78009968       1.39134950
H        0.27629989       0.83174968       0.66744973
H        1.11710959       0.63519978       2.21236905
H        2.05323925      -0.50810980      -0.47566981
H        2.89199881      -0.71694975       1.07662959
H        4.50893801       0.13078995      -0.67468975
H        4.40539842       2.96866891      -0.74483973
H        6.67868756       1.58777942       0.52772979
H        5.53037797       2.70554898       1.30727954
H        6.64045735       3.29255879       0.05693998
