18
Properties=species:S:1:pos:R:3 atomization_energy=-1710.07 smiles=C.C.O.C.C.N.C.H.H.H.H.H.H.H.H.H.H.H pbc="F F F"
C        2.29818918      -0.48164981      -1.40724940
C        2.48833895       0.02745999       0.01423999
O        3.21855861      -0.94182963       0.76389970
C        3.25785870       1.33614952       0.02332999
C        2.51559906       2.59381897      -0.48249982
N        3.15295879       3.36231879       0.61049977
C        3.30397879       2.09430919       1.36695942
H        1.71037936       0.21926992      -2.00746926
H        1.78987935      -1.45162942      -1.40150949
H        3.26288867      -0.63151978      -1.90471921
H        1.50988943       0.14172994       0.49419982
H        4.04044845      -1.14183956       0.28261990
H        4.25648816       1.23562945      -0.42815984
H        1.42267946       2.55494910      -0.40238985
H        2.78072880       2.92513874      -1.49062936
H        4.04782838       3.77493843       0.34490986
H        4.23858829       2.00517923       1.92844920
H        2.46642903       1.89678920       2.04675925
