14
Properties=species:S:1:pos:R:3 atomization_energy=-1428.24 smiles=C.C.C.C.C.N.O.H.H.H.H.H.H.H pbc="F F F"
C        1.83050922      -0.84999966      -0.99342961
C        2.13570905       0.07395997      -0.07232998
C        3.07805880       1.23588948      -0.21414991
C        3.52353853       1.61490932      -1.60921938
C        3.64558864       3.07320874      -1.39420943
N        3.03607870       3.53773872      -0.35834987
O        2.42953896       2.42434901       0.27824990
H        1.12636951      -1.64436937      -0.76010968
H        2.25955903      -0.85187966      -1.98976923
H        1.66349936      -0.00734000       0.90666967
H        3.94859835       1.05865957       0.43067984
H        2.77755902       1.45151940      -2.39214902
H        4.47483847       1.16304952      -1.89692924
H        4.18267824       3.70607849      -2.11399922
