13
Properties=species:S:1:pos:R:3 atomization_energy=-1302.59 smiles=C.C.N.O.C.C.N.H.H.H.H.H.H pbc="F F F"
C       -0.54806980       1.18326958       0.39188984
C        0.29265988       0.09037996      -0.18712993
N        1.57987943       0.10923996      -0.06760998
O        2.10712913      -1.02842960      -0.70239969
C        3.53450863      -0.99969960      -0.58758980
C        4.11433836      -2.18408902      -1.23244957
N        4.59104812      -3.11520877      -1.73813933
H       -1.26414944       0.74553970       1.09198963
H       -1.10095963       1.66934928      -0.41593985
H        0.06961998       1.92054921       0.91029964
H       -0.23561991      -0.72064974      -0.71904971
H        3.80802840      -0.97867959       0.47330982
H        3.91249858      -0.08934996      -1.06620957
