14
Properties=species:S:1:pos:R:3 atomization_energy=-1439.59 smiles=C.C.O.C.C.N.C.H.H.H.H.H.H.H pbc="F F F"
C        1.08825954       0.08486997       0.15749993
C        2.34778918      -0.12942995      -0.23927991
O        2.72243902      -1.40736938      -0.65766975
C        4.06399852      -1.27495944      -1.18901958
C        4.54799839       0.11837995      -0.93044962
N        3.94856833       1.27044952      -1.59836939
C        3.41905876       0.85984967      -0.30355989
H        0.75757968       1.06741963       0.47062981
H        0.36586985      -0.72312972       0.15535994
H        4.69860835      -2.01151917      -0.68599974
H        4.03874849      -1.50111940      -2.26024916
H        5.54920794       0.20352992      -0.53848979
H        4.52910837       2.10263915      -1.49436942
H        3.61321857       1.47743938       0.56327976
