17
Properties=species:S:1:pos:R:3 atomization_energy=-1587.24 smiles=C.C.O.C.N.C.N.H.H.H.H.H.H.H.H.H.H pbc="F F F"
C        0.95878964       0.04477998      -0.12287995
C        2.44840904       0.02595999       0.01004000
O        2.88699887       0.09939996       1.38272949
C        3.33147861      -0.75807968      -0.93939962
N        2.77642883      -1.56724937      -2.03046925
C        3.29553882       0.75369971      -1.01111961
N        4.45304815       1.55214936      -0.58092976
H        0.63079975       0.12429995      -1.16394958
H        0.54285979       0.89998964       0.42006985
H        0.53032978      -0.86855964       0.30117988
H        3.79759854      -0.22117990       1.49038940
H        4.22956845      -1.20174956      -0.51597979
H        2.04877916      -1.07003959      -2.54184908
H        2.34213898      -2.41415911      -1.66407935
H        2.77017883       1.19158957      -1.85709926
H        5.05219813       1.03583962       0.05843998
H        4.12768845       2.36543900      -0.05731998
