17
Properties=species:S:1:pos:R:3 atomization_energy=-1576.84 smiles=C.C.C.N.C.N.O.H.H.H.H.H.H.H.H.H.H pbc="F F F"
C        1.02995961       0.04877998      -0.01610999
C        2.55700889      -0.04240999       0.02092999
C        3.02579873      -0.80606967       1.26196955
N        3.03763887      -0.75164971      -1.17986954
C        3.12867872       1.37492943      -0.00898000
N        3.36474874       2.04964920       1.07350952
O        3.83175839       3.32194857       0.72246975
H        0.68215970       0.60377974      -0.89570966
H        0.64655974       0.57505978       0.86600964
H        0.56829976      -0.94489962      -0.03937998
H        2.66558904      -0.33188988       2.18243903
H        4.12030826      -0.83859966       1.32057942
H        2.65743900      -1.83858924       1.26123956
H        2.60224885      -0.36008986      -2.01472920
H        2.73446892      -1.72486935      -1.14148958
H        3.27157870       1.83636923      -1.00374958
H        4.01290851       3.72545854       1.59198932
