18
Properties=species:S:1:pos:R:3 atomization_energy=-1723.47 smiles=C.C.C.C.O.C.N.H.H.H.H.H.H.H.H.H.H.H pbc="F F F"
C        1.37270942      -0.60566977       0.49179980
C        2.87384888      -0.54636978       0.35910986
C        3.62008854      -1.62084932       0.67232976
C        3.41319861       0.77198969      -0.15707994
O        2.98424885       1.80669924       0.73552972
C        4.94966786       0.89461966      -0.31692989
N        5.32265787       2.26919909      -0.70417970
H        0.89729966      -0.37236984      -0.46677980
H        1.02148960       0.11218995       1.24000954
H        1.02383963      -1.59781943       0.79853967
H        3.16140886      -2.53648905       1.03614961
H        4.70129821      -1.63009941       0.59327974
H        2.94899893       0.97620964      -1.13043961
H        3.61797855       2.53669899       0.57842979
H        5.32349813       0.18602993      -1.06354963
H        5.44343774       0.68715971       0.63918977
H        4.97210819       2.45631912      -1.64505937
H        6.33994748       2.32292900      -0.77320971
