14
Properties=species:S:1:pos:R:3 atomization_energy=-1481.4 smiles=C.C.C.C.N.C.O.H.H.H.H.H.H.H pbc="F F F"
C        0.97635959      -0.14718995      -0.01394999
C        2.48187902       0.05816998       0.02442999
C        2.83532900       1.49368939       0.00896999
C        3.11665867       2.43422904       0.97294965
N        3.38481867       3.64311856       0.38353985
C        3.25844865       3.39274868      -0.90042964
O        2.92640872       2.10887917      -1.20939949
H        0.73835974      -1.21557946      -0.00086000
H        0.53986979       0.28729989      -0.91994961
H        0.49035981       0.31994988       0.84958969
H        2.94174895      -0.44628981      -0.83315964
H        2.88981892      -0.41213983       0.92654965
H        3.13894886       2.30698898       2.04621914
H        3.38328878       4.07347836      -1.72961936
