14
Properties=species:S:1:pos:R:3 atomization_energy=-1372.9 smiles=C.C.N.N.C.C.H.H.H.H.H.H.H.H pbc="F F F"
C        0.82079970      -0.71962969       0.14051995
C        2.09553917       0.00145000      -0.22674992
N        3.17741877      -0.68913975      -0.42761982
N        2.17258903       1.36047942      -0.34703985
C        1.25344946       2.35820895      -0.18517993
C        1.47356937       3.66614859      -0.35236988
H       -0.05100998      -0.06644998       0.14179995
H        0.93721961      -1.15988957       1.13517953
H        0.64482975      -1.52512935      -0.57905980
H        2.98768889      -1.68928938      -0.30034990
H        3.10626868       1.66749932      -0.60448974
H        0.26144989       2.02784917       0.10848996
H        2.44490896       4.05038828      -0.64402973
H        0.67461973       4.38449833      -0.20003992
