17
Properties=species:S:1:pos:R:3 atomization_energy=-1569.61 smiles=C.C.O.N.C.C.N.H.H.H.H.H.H.H.H.H.H pbc="F F F"
C        0.89794967       1.59128935       0.56898976
C        2.28693899       1.30453948       0.03547998
O        3.16840878       2.33059912       0.49076981
N        4.44912844       2.07860913      -0.02190999
C        5.25515775       2.99136888       0.41620984
C        6.71385749       2.98718876       0.03392999
N        6.99000730       4.17149845      -0.78197968
H        0.18846992       0.82642965       0.24153990
H        0.54750981       2.56962898       0.22504991
H        0.90404965       1.62216940       1.66386941
H        2.27343902       1.29139945      -1.05956960
H        2.63762898       0.33333987       0.40345983
H        4.91240812       3.80676851       1.07760952
H        6.95775735       2.07715924      -0.52192979
H        7.30950712       3.02178893       0.94971966
H        6.44122769       4.10883829      -1.64163940
H        7.96577682       4.14878838      -1.07530952
