16
Properties=species:S:1:pos:R:3 atomization_energy=-1606.54 smiles=C.C.N.C.C.C.O.H.H.H.H.H.H.H.H.H pbc="F F F"
C        2.47222912      -0.33255985       1.72358928
C        2.20765904       0.31480986       0.37204985
N        3.02100872       1.51391941       0.16619994
C        2.62167886       2.76931889       0.59842975
C        1.48629936       3.06351872       1.24042955
C        4.26497810       1.34257942      -0.44009984
O        4.74602796       0.28289990      -0.82606970
H        1.86449925      -1.23558946       1.83704927
H        2.22888918       0.34763986       2.54583894
H        3.52543858      -0.61450975       1.82495932
H        1.14584961       0.55545976       0.25379990
H        2.43829914      -0.41277984      -0.41553984
H        3.31501879       3.58317854       0.38912984
H        0.73685969       2.32730897       1.50353939
H        1.27943946       4.08888848       1.53322944
H        4.82137811       2.28869900      -0.55121978
