16
Properties=species:S:1:pos:R:3 atomization_energy=-1586.25 smiles=C.C.C.O.C.C.N.H.H.H.H.H.H.H.H.H pbc="F F F"
C        0.99197959       0.05947998       0.02796999
C        2.50127900      -0.01099000      -0.12692995
C        3.16143863       1.33747943       0.07179997
O        2.55364909       2.38344914       0.26923988
C        4.64106825       1.36472944      -0.07907997
C        5.48201767       1.91289929       1.04547962
N        5.40684769       0.47712980       0.80520967
H        0.54600977      -0.92613961      -0.13442995
H        0.55405977       0.75666972      -0.69295973
H        0.71767974       0.39864986       1.03196961
H        2.75033904      -0.36977985      -1.13210954
H        2.90493886      -0.71740975       0.60606978
H        5.00807800       1.49170947      -1.09013954
H        4.97940813       2.28103899       1.93248928
H        6.41467740       2.40602900       0.80095966
H        6.25558759       0.14620994       0.34247988
