18
Properties=species:S:1:pos:R:3 atomization_energy=-1638.56 smiles=C.C.N.C.C.N.H.H.H.H.H.H.H.H.H.H.H.H pbc="F F F"
C        1.02942958      -0.60016977       0.07079997
C        2.48835914      -0.20443992      -0.15548994
N        3.07259885      -1.06132962      -1.19017954
C        2.59258885       1.27936944      -0.54543981
C        4.04076840       1.75939937      -0.65278973
N        4.07823833       3.18888874      -0.96199961
H        0.58491975       0.00355000       0.86941964
H        0.94834962      -1.65169934       0.36761987
H        0.42809982      -0.45627983      -0.83404968
H        3.04105871      -0.36784986       0.77722967
H        2.54337896      -0.96209959      -2.05659916
H        2.97435873      -2.03915916      -0.91682966
H        2.07232924       1.88119929       0.21140993
H        2.07127917       1.45417948      -1.49607947
H        4.57751812       1.21300947      -1.43561938
H        4.56455838       1.58928937       0.29424988
H        3.64073857       3.34649863      -1.86900930
H        5.05036822       3.47786859      -1.06556954
