15
Properties=species:S:1:pos:R:3 atomization_energy=-1477.12 smiles=C.C.C.O.N.C.N.H.H.H.H.H.H.H.H pbc="F F F"
C        1.14778953      -0.37171987       0.38137986
C        2.20787907      -0.17969993      -0.69208975
C        2.30581917      -1.43837938      -1.53183935
O        3.30664871      -2.15096904      -1.56768943
N        1.78508934       0.92476964      -1.56963932
C        2.75859885       1.53492939      -2.13820914
N        2.56948894       2.57208896      -2.98942871
H        1.05434956       0.52814979       0.99838962
H        1.40195940      -1.21277947       1.03505960
H        0.16501994      -0.57764977      -0.05785998
H        3.17725879       0.01473999      -0.21669991
H        1.40279941      -1.70105937      -2.11020921
H        3.82491844       1.27600952      -2.00060925
H        1.62670934       2.94669893      -2.97345891
H        3.29690872       3.27471871      -3.03997873
