14
Properties=species:S:1:pos:R:3 atomization_energy=-1422.61 smiles=C.C.N.C.O.C.O.H.H.H.H.H.H.H pbc="F F F"
C        1.13388961      -0.91886963      -0.17976994
C        2.26863917       0.05339998       0.07707997
N        1.77467929       1.40437938       0.21283992
C        1.86991933       2.34478896      -0.78549970
O        2.41660900       2.20946901      -1.86835929
C        1.21922956       3.67195852      -0.44344982
O        0.53342979       3.79389860       0.56282979
H        1.51763940      -1.93873927      -0.27780990
H        0.59420977      -0.66299975      -1.09870959
H        0.41179985      -0.90271962       0.64469974
H        2.99627875       0.00454000      -0.73824972
H        2.77882901      -0.20056992       1.01019961
H        1.24724956       1.67234938       1.04164961
H        1.42867939       4.48142835      -1.15995960
