13
Properties=species:S:1:pos:R:3 atomization_energy=-1367.0 smiles=C.C.N.C.O.C.N.H.H.H.H.H.H pbc="F F F"
C        0.99222959      -0.01169000      -0.00574999
C        2.47053900       0.07248997      -0.00029000
N        3.19991864       1.16894953       0.00501000
C        4.49317841       0.74596974       0.00840000
O        5.55667795       1.55770936       0.01414000
C        4.57433824      -0.62281978       0.00519000
N        3.27154868      -1.04299958      -0.00042000
H        0.54892981       0.98889963       0.00228000
H        0.63369973      -0.55033977       0.87679964
H        0.63958978      -0.53356977      -0.90064961
H        6.36966756       1.03238962       0.01558999
H        5.40135797      -1.31649947       0.00628000
H        2.94777891      -2.00065921      -0.00402000
