15
Properties=species:S:1:pos:R:3 atomization_energy=-1476.44 smiles=C.C.C.N.N.C.O.H.H.H.H.H.H.H.H pbc="F F F"
C        0.90382962       0.14537995      -0.00499000
C        2.34848915      -0.28372987       0.06280998
C        2.64786908      -1.73687931      -0.21191992
N        3.23685868       0.61888978       0.35691985
N        4.53901842       0.24208990       0.42463982
C        5.50835803       1.15983949       0.73126973
O        6.69945745       0.88536963       0.80917966
H        0.80726970       1.21684957       0.19063992
H        0.32819988      -0.40805983       0.74177971
H        0.50798978      -0.07328997      -1.00036960
H        1.72668929      -2.27774909      -0.44477983
H        3.10566889      -2.19216917       0.67045973
H        3.32516856      -1.81997931      -1.06618964
H        4.83760806      -0.71070972       0.25653990
H        5.11138798       2.17398921       0.90198962
