12
Properties=species:S:1:pos:R:3 atomization_energy=-1260.07 smiles=C.C.C.O.C.N.O.H.H.H.H.H pbc="F F F"
C        0.94719962      -0.06406997      -0.00393000
C        2.40735904       0.11818995      -0.00486000
C        3.24584874       1.19901947      -0.00093000
O        2.84561882       2.47972890       0.00551000
C        4.54003835       0.65812975      -0.00513000
N        4.51198819      -0.67763976      -0.01134999
O        3.16350876      -1.01789962      -0.01122000
H        0.42737982       0.89866963       0.00844999
H        0.63225974      -0.63099972       0.87738965
H        0.62872976      -0.61024977      -0.89700967
H        3.61388851       3.07724882       0.00727000
H        5.49741796       1.15784960      -0.00404000
