16
Properties=species:S:1:pos:R:3 atomization_energy=-1599.7 smiles=C.C.C.C.O.C.N.H.H.H.H.H.H.H.H.H pbc="F F F"
C        1.30052943      -0.44748984      -0.06360998
C        2.80467883      -0.26926991       0.07487997
C        3.20160876       1.20627954      -0.00742000
C        4.71610803       1.42967938       0.07396997
O        4.97590829       2.81037899      -0.22157991
C        5.25950794       1.06790953       1.39852947
N        5.66804788       0.79797969       2.45303907
H        1.03705957      -1.50782940       0.00147000
H        0.94732963      -0.06840998      -1.02788961
H        0.76790968       0.08434997       0.73128973
H        3.30743876      -0.83393967      -0.71879971
H        3.12357885      -0.69789975       1.03140956
H        2.69770904       1.77271931       0.78726967
H        2.83242896       1.63001942      -0.95084966
H        5.21817810       0.84322968      -0.70326973
H        4.66328804       3.33640866       0.53664979
