18
Properties=species:S:1:pos:R:3 atomization_energy=-1725.12 smiles=C.C.C.N.C.C.O.H.H.H.H.H.H.H.H.H.H.H pbc="F F F"
C       -0.22407992       1.48535943       0.50149979
C        1.00746957       0.64569973       0.80490971
C        2.26901918       1.27051954       0.20798992
N        3.42675864       0.42576982       0.51015980
C        4.65093793       1.00888963      -0.05346998
C        5.82256747       0.12238995       0.30986988
O        6.55231754      -0.41175982      -0.52140980
H       -1.11155956       1.03389957       0.95536960
H       -0.39307984       1.55574938      -0.57755975
H       -0.11656995       2.49892904       0.89981964
H        0.85788969      -0.36410987       0.40312984
H        1.11562954       0.54903976       1.89237921
H        2.41394918       2.27065908       0.63333972
H        2.14922921       1.37589951      -0.87689963
H        3.27961874      -0.49595980       0.09243996
H        4.84685801       2.00015922       0.36923986
H        4.58972843       1.08588952      -1.14352955
H        6.00838774      -0.00346000       1.39045940
