11
Properties=species:S:1:pos:R:3 atomization_energy=-1186.31 smiles=C.C.N.N.C.C.O.H.H.H.H pbc="F F F"
C        0.97106959       0.03657998      -0.00665000
C        2.44911911       0.04239998      -0.00049000
N        3.25196878       1.06491953       0.00447000
N        4.63086801       0.58591974       0.00829000
C        4.63723837      -0.70638975       0.00519000
C        3.24509881      -1.21400958      -0.00092000
O        2.86637886      -2.35433920      -0.00510000
H        0.59103979       1.06130955       0.00252000
H        0.60326979      -0.49030982       0.87754963
H        0.61095977      -0.47154981      -0.90487963
H        5.48300782      -1.40351944       0.00653000
