15
Properties=species:S:1:pos:R:3 atomization_energy=-1439.4 smiles=C.C.C.O.C.N.N.H.H.H.H.H.H.H.H pbc="F F F"
C        0.04135998       0.61088974      -0.13244996
C        1.40750943       0.13498995       0.23223990
C        2.53033899       0.79652966      -0.06602997
O        3.78559842       0.29914987       0.29312988
C        4.81472817       1.19349959       0.38289985
N        4.71965833       2.46738915       0.17952994
N        5.89655756       3.11853879       0.35449987
H       -0.45905982      -0.13418995      -0.75828968
H        0.06622998       1.55744933      -0.68185974
H       -0.55611980       0.75740967       0.77267969
H        1.47346945      -0.80370968       0.77609972
H        2.55671896       1.72978931      -0.61355979
H        5.73982755       0.66053977       0.66262977
H        5.92711790       3.91763857      -0.28688988
H        5.89903747       3.56898869       1.27575946
