16
Properties=species:S:1:pos:R:3 atomization_energy=-1618.54 smiles=C.C.C.C.C.N.O.H.H.H.H.H.H.H.H.H pbc="F F F"
C        0.66977976      -0.79690967       1.07814951
C        1.96493920      -0.84355967       0.31448988
C        2.42487915      -1.98445917      -0.22625992
C        2.73604901       0.45434981       0.22337992
C        1.97862918       1.51471943      -0.56417976
N        1.76369935       1.22844949      -1.88236923
O        1.59947939       2.57580908      -0.07974997
H        0.84174969      -0.43401983       2.09653916
H        0.20209992      -1.78455932       1.15178949
H       -0.04447998      -0.12949995       0.58560975
H        1.87357926      -2.91679894      -0.13952994
H        3.37193867      -2.02486926      -0.75660972
H        3.71205850       0.31228986      -0.25624990
H        2.93097894       0.83937967       1.23105948
H        1.83286927       0.27826990      -2.22134902
H        1.18814954       1.87979923      -2.39956907
