18
Properties=species:S:1:pos:R:3 atomization_energy=-1747.92 smiles=C.C.C.C.N.C.C.H.H.H.H.H.H.H.H.H.H.H pbc="F F F"
C       -1.53945937       0.77726972      -0.03177999
C       -1.54089943      -0.77610969       0.05100998
C       -0.20120992      -1.38385943       0.55326978
C        0.86734965      -0.74225971      -0.24470991
N        2.07118921       0.00239000      -0.03381999
C        0.86835967       0.72458970       0.22754991
C       -0.20505991       1.37953952      -0.55283981
H       -2.37272910       1.11884954      -0.65574977
H       -1.72146931       1.16486958       0.97937961
H       -1.73859933      -1.16315954      -0.95728965
H       -2.36630903      -1.11496956       0.68686971
H       -0.08196997      -1.21482953       1.63028942
H       -0.20529991      -2.46697911       0.39059986
H        0.73707973      -0.98802959      -1.29661943
H        2.54162904      -0.29410987       0.82252969
H        0.76334968       0.98053964       1.27962946
H       -0.19875993       2.46191911      -0.38658984
H       -0.10359996       1.21176951      -1.63162942
