12
Properties=species:S:1:pos:R:3 atomization_energy=-1287.54 smiles=C.C.N.C.O.C.O.H.H.H.H.H pbc="F F F"
C        1.02798959      -0.03046999      -0.00632000
C        2.49537899       0.12375995      -0.00064000
N        3.21168864       1.22929947       0.00643000
C        4.49699820       0.77650970       0.00883000
O        5.57977787       1.56581941       0.01577999
C        4.52198808      -0.59642978       0.00309000
O        3.23083882      -1.03283959      -0.00311000
H        0.53686976       0.94700961       0.00155000
H        0.69802970      -0.58692976       0.87559968
H        0.70330973      -0.57004981      -0.90060962
H        6.38885735       1.03206960       0.01621999
H        5.28611778      -1.35678946       0.00244000
