21
Properties=species:S:1:pos:R:3 atomization_energy=-2064.84 smiles=C.C.C.C.C.C.C.H.H.H.H.H.H.H.H.H.H.H.H.H.H pbc="F F F"
C        2.09357919      -0.31344986      -1.50888944
C        2.41649898       0.07627997      -0.07405997
C        3.12839889       1.42527948       0.02668999
C        2.28917919       2.61699887      -0.42783982
C        3.03290892       3.81255850       0.15175994
C        3.66180849       3.31520880       1.45188945
C        3.47297867       1.79914924       1.46836946
H        1.64213939      -1.31039949      -1.53536934
H        2.99922875      -0.33515987      -2.12300922
H        1.38481942       0.38582985      -1.96226929
H        3.05380876      -0.70002974       0.36667987
H        1.48756947       0.09107996       0.50913979
H        4.05518838       1.39222951      -0.56232980
H        1.27644946       2.56565905      -0.00925999
H        2.20502924       2.68380887      -1.51685945
H        3.82210848       4.13273835      -0.53889976
H        2.36995900       4.66763823       0.31428987
H        4.72477813       3.57909859       1.48451942
H        3.18498871       3.77184864       2.32585907
H        4.36881847       1.28094953       1.82500928
H        2.64984887       1.54153934       2.14631907
