8
Properties=species:S:1:pos:R:3 atomization_energy=-963.04 smiles=C.C.C.N.C.N.H.H pbc="F F F"
C        0.96920959       0.01035000      -0.00000000
C        2.31403912       0.00000000       0.00000000
C        3.01703879      -1.21762952       0.00000000
N        3.59254861      -2.21443918       0.00000000
C        3.03752885       1.22612956       0.00000000
N        3.60756862       2.23628904      -0.00000000
H        0.40603985       0.94049966      -0.00000000
H        0.39143984      -0.91082967       0.00000000
