17
Properties=species:S:1:pos:R:3 atomization_energy=-1672.42 smiles=C.C.C.N.C.N.C.H.H.H.H.H.H.H.H.H.H pbc="F F F"
C        1.69978939      -0.11965995       0.05482998
C        0.80520967      -1.27090953       0.52114981
C       -0.45394983      -1.44597948      -0.31865987
N       -1.53340935      -0.54683981       0.08359996
C       -1.30941943       0.69252976       0.30436988
N       -0.17595994       1.45416939       0.22290991
C        0.96619960       1.06100953      -0.56875976
H        2.41936900      -0.49982980      -0.68197973
H        2.29544912       0.22319991       0.91055967
H        1.39610948      -2.19389916       0.48970980
H        0.53269979      -1.11813960       1.57319934
H       -0.82183968      -2.46660894      -0.16011994
H       -0.25302990      -1.35883952      -1.39228944
H       -2.16700923       1.30404945       0.63568975
H       -0.33003988       2.45720909       0.26093990
H        1.65913933       1.90701921      -0.64353977
H        0.65058971       0.83178968      -1.59317944
