13
Properties=species:S:1:pos:R:3 atomization_energy=-1376.82 smiles=C.C.C.C.N.N.C.H.H.H.H.H.H pbc="F F F"
C        1.39417940       0.78985967       0.13318995
C        2.57755899      -0.22197991       0.02362999
C        3.43940877       0.95684965      -0.00746000
C        2.42649912       1.82518932       0.08733996
N        2.92509887       3.05946880       0.08345997
N        4.29077846       3.01127883      -0.01535000
C        4.58805800       1.69078937      -0.07084997
H        0.79697969       0.80507965       1.05142959
H        0.67452971       0.85043967      -0.69065973
H        2.65366891      -0.84744967      -0.87276966
H        2.77664886      -0.89116966       0.86814966
H        2.46870909       3.96456840       0.13898994
H        5.62292803       1.38755949      -0.15313993
