18
Properties=species:S:1:pos:R:3 atomization_energy=-1746.71 smiles=C.C.C.O.N.C.C.H.H.H.H.H.H.H.H.H.H.H pbc="F F F"
C        1.19742953       0.31272986       0.39478985
C        2.41410915       0.13034995      -0.49872980
C        3.66148853      -0.24834989       0.28645988
O        3.62687852      -0.38516985       1.50934944
N        4.83123821      -0.43651983      -0.44729983
C        4.98622814      -0.07674996      -1.84859922
C        6.06122742      -0.69004972       0.28564990
H        0.32223988       0.58215975      -0.20449993
H        1.36538941       1.10609961       1.13063959
H        0.96784959      -0.60861978       0.94017964
H        2.60165890       1.06878954      -1.03122959
H        2.20256901      -0.66193977      -1.22472950
H        4.03949842      -0.09743996      -2.38983917
H        5.66940795      -0.78407970      -2.32779899
H        5.40562792       0.93199963      -1.90295920
H        5.86471789      -1.14716955       1.25900946
H        6.57821733       0.26188990       0.43763983
H        6.69662730      -1.36572943      -0.29394989
