18
Properties=species:S:1:pos:R:3 atomization_energy=-1716.78 smiles=C.C.O.C.C.C.N.H.H.H.H.H.H.H.H.H.H.H pbc="F F F"
C        1.01159960       0.13410995       0.12120996
C        2.50331910      -0.08122997      -0.03449999
O        3.25327863       0.96101962       0.64256975
C        4.06746833      -0.03078999       1.31161951
C        3.14577870      -1.16665950       0.85171968
C        3.78199841      -2.31842918       0.09653996
N        4.48769828      -3.20910880       1.01374959
H        0.45647983      -0.71971972      -0.27996989
H        0.69231976       1.02858957      -0.42307984
H        0.72966970       0.25936989       1.17191959
H        2.79699887      -0.12473995      -1.09115959
H        5.08605795      -0.03749999       0.91091962
H        4.09820833       0.13305995       2.39294916
H        2.47649907      -1.51287943       1.65156939
H        4.47672843      -1.96101924      -0.67122972
H        3.00170891      -2.89486883      -0.41253984
H        5.31394790      -2.74265883       1.38734942
H        4.83745817      -4.01658851       0.49695982
