14
Properties=species:S:1:pos:R:3 atomization_energy=-1351.27 smiles=C.C.C.N.N.C.H.H.H.H.H.H.H.H pbc="F F F"
C        0.76937970       0.11754995      -0.02806999
C        2.23267919      -0.22483991       0.07414997
C        2.62009901      -1.67599935      -0.07417997
N        3.07841888       0.74102972       0.27799990
N        4.39940808       0.31535988       0.35088986
C        5.18637780       1.31654943       0.55750976
H        0.61253974       1.19277957       0.09510996
H        0.21805991      -0.41589982       0.75117968
H        0.39451986      -0.18865993      -1.00861957
H        1.72921929      -2.29529898      -0.20995992
H        3.14551880      -2.01345922       0.82338970
H        3.26651871      -1.79694929      -0.94774964
H        6.27134770       1.15238953       0.64153973
H        4.82724834       2.35492914       0.65773971
