18
Properties=species:S:1:pos:R:3 atomization_energy=-1706.45 smiles=C.C.C.C.C.N.O.H.H.H.H.H.H.H.H.H.H.H pbc="F F F"
C        0.94967960      -0.04432998       0.03015999
C        2.47740897      -0.02272999      -0.06689997
C        2.93185883      -0.83141969      -1.28376946
C        3.02130874       1.40843939      -0.15887993
C        2.75458880       2.17974918       1.10557956
N        2.01946925       3.24242864       1.08700962
O        1.93482927       3.75807842       2.38533910
H        0.60423975       0.45459984       0.94052962
H        0.57802978      -1.07396952       0.05956998
H        0.48995980       0.45696982      -0.82825969
H        2.88025885      -0.50362982       0.83400969
H        2.55395896      -0.39422983      -2.21407910
H        2.57049902      -1.86327923      -1.22312946
H        4.02462854      -0.86354966      -1.34352945
H        2.58868907       1.93957928      -1.01379962
H        4.10863844       1.38554941      -0.29022990
H        3.21260864       1.79923932       2.03725923
H        1.37117941       4.54424824       2.26034908
