16
Properties=species:S:1:pos:R:3 atomization_energy=-1608.18 smiles=C.C.O.N.C.C.C.H.H.H.H.H.H.H.H.H pbc="F F F"
C        3.00164886      -1.66295937       1.02642962
C        2.46029914      -0.46126983       0.29961987
O        1.28507944      -0.37853985      -0.04960998
N        3.33719871       0.55807978       0.03490999
C        4.71125822       0.61520978       0.40407984
C        5.76506774      -0.07313997      -0.41782984
C        5.67942752       1.42396950      -0.41638985
H        3.79151862      -2.13561922       0.43781984
H        2.19719915      -2.39000899       1.17165956
H        3.38367863      -1.36924945       2.00723925
H        2.91903889       1.34740942      -0.44436982
H        4.86077812       0.64726973       1.48118940
H        5.46001792      -0.59681975      -1.31662942
H        6.59296760      -0.53657977       0.10597996
H        6.45055739       1.97620920       0.10832996
H        5.32404771       1.90845927      -1.31826945
