14
Properties=species:S:1:pos:R:3 atomization_energy=-1443.62 smiles=C.C.C.O.C.C.N.H.H.H.H.H.H.H pbc="F F F"
C        0.83576970      -0.24283991       1.76890936
C        1.51440944      -0.08841996       0.62430973
C        2.51546911       0.98986960       0.36398986
O        3.73866859       0.35007988       0.00823000
C        4.80240835       1.28238946      -0.22233990
C        4.67953817       1.97690917      -1.51552941
N        4.57940808       2.54651897      -2.52188892
H        0.12447995      -1.05540961       1.88390920
H        0.97450962       0.42455983       2.61340896
H        1.34123942      -0.78810968      -0.19047993
H        2.66627892       1.61587941       1.25089953
H        2.16181903       1.61655932      -0.46153983
H        5.73265781       0.70463971      -0.21629991
H        4.86297795       1.99481926       0.60806976
