16
Properties=species:S:1:pos:R:3 atomization_energy=-1577.58 smiles=C.C.C.O.N.C.C.H.H.H.H.H.H.H.H.H pbc="F F F"
C        0.97667961       0.01621999       0.01805999
C        2.49497905      -0.00550000      -0.05046998
C        3.10322884      -1.22194956       0.61001977
O        3.29927862      -0.84071968       1.97703925
N        3.50672873       0.56097976       1.99833915
C        3.07524884       1.01486963       0.86592965
C        3.10212868       2.46584892       0.52007980
H        0.55228978      -0.81126965      -0.55968978
H        0.58479977       0.95305964      -0.39237983
H        0.61273977      -0.06560997       1.04839959
H        2.84329888       0.11805995      -1.07919959
H        4.08288829      -1.46562939       0.18348993
H        2.46666900      -2.11006916       0.56133977
H        2.77570892       2.61942908      -0.51095979
H        4.11949828       2.84833894       0.63420976
H        2.43556891       3.01043882       1.19343954
