17
Properties=species:S:1:pos:R:3 atomization_energy=-1618.81 smiles=C.C.C.O.C.N.N.H.H.H.H.H.H.H.H.H.H pbc="F F F"
C        0.83989966      -0.04490998       0.16150994
C        2.35624909       0.06202997       0.04289998
C        3.06309884      -0.79858969       1.08660955
O        2.72293889      -0.41311983      -1.25868950
C        2.79487878       1.54264934       0.15846994
N        3.34081866       2.14699911      -0.93709962
N        2.65375900       2.24374922       1.23709953
H        0.34727985       0.57517976      -0.59603974
H        0.48356980       0.27838989       1.14461950
H        0.50599980      -1.07426954      -0.00913000
H        2.77113896      -0.52903979       2.10634917
H        4.15072831      -0.68829974       1.00857958
H        2.84222900      -1.86032923       0.93078963
H        3.69269863      -0.32364988      -1.31357950
H        2.98062891       1.80286923      -1.82295934
H        3.32111865       3.15829888      -0.85713970
H        2.22872920       1.68762930       1.98529918
