14
Properties=species:S:1:pos:R:3 atomization_energy=-1395.04 smiles=C.C.N.O.C.C.C.H.H.H.H.H.H.H pbc="F F F"
C        0.20402991       0.46631980      -0.39688985
C        1.53320938      -0.15637993      -0.11108995
N        2.52638899       0.56046980       0.30052987
O        3.63733867      -0.28135989       0.48584980
C        4.74313826       0.50414981       0.93932966
C        5.90738761      -0.36653985       1.14537952
C        6.86106754      -1.07690956       1.31516943
H       -0.05368998       0.28510988      -1.44345944
H        0.22509990       1.54162942      -0.20418992
H       -0.55124980      -0.00612000       0.23627991
H        1.62123930      -1.24587952      -0.26872989
H        4.47168837       0.99969960       1.87813927
H        4.97173827       1.26952952       0.18930993
H        7.70460690      -1.71050931       1.46476945
