16
Properties=species:S:1:pos:R:3 atomization_energy=-1564.76 smiles=C.C.C.C.C.N.O.H.H.H.H.H.H.H.H.H pbc="F F F"
C        1.10224954      -0.06573997      -0.10926995
C        2.47003913       0.57246979      -0.03723998
C        3.67318863      -0.34096987      -0.23324990
C        4.05242838      -0.95007960       1.08453955
C        3.98994838      -2.26009902       1.36168948
N        2.53012904       1.84446932       0.23441990
O        3.84999840       2.29857903       0.30761987
H        0.32112988       0.69874972      -0.11076996
H        0.96188959      -0.71822970       0.75566972
H        1.02157962      -0.65686974      -1.02446957
H        4.52053818       0.21318991      -0.64683976
H        3.40894860      -1.11012960      -0.96750964
H        4.40669843      -0.26172990       1.85010930
H        3.64926864      -2.98558873       0.63022974
H        4.28594834      -2.63290887       2.33742896
H        3.73342843       3.24379880       0.51884981
