17
Properties=species:S:1:pos:R:3 atomization_energy=-1600.89 smiles=C.C.C.N.N.C.O.H.H.H.H.H.H.H.H.H.H pbc="F F F"
C        1.00937959      -0.31152987       0.03737998
C        2.51140910      -0.07254997       0.04734998
C        2.83800876       1.41713940      -0.06200998
N        4.29013855       1.61322942      -0.01341999
N        4.61623835       2.96625889      -0.16383993
C        4.98968810       3.72380855       0.91782965
O        5.29360798       4.90786818       0.83788966
H        0.79585966      -1.38208945       0.11034996
H        0.55878978       0.06339998      -0.88668964
H        0.52798978       0.18940992       0.88291962
H        2.96648877      -0.61962974      -0.78745968
H        2.93291887      -0.48366982       0.97284960
H        2.36415917       1.95762929       0.76683967
H        2.43268906       1.81531926      -1.00059960
H        4.73709796       1.07563957      -0.76094969
H        4.61090810       3.42525854      -1.07147964
H        4.98404800       3.16769872       1.86993926
