19
Properties=species:S:1:pos:R:3 atomization_energy=-1763.55 smiles=C.C.N.C.C.C.H.H.H.H.H.H.H.H.H.H.H.H.H pbc="F F F"
C        1.14978951      -0.21373992      -0.53858978
C        2.66797887      -0.17632994      -0.43375983
N        3.12416880       1.21212946      -0.37798986
C        4.56931836       1.34028951      -0.14881994
C        5.39481805       0.82121965      -1.32798950
C        4.88616820       2.81989895       0.08648997
H        0.80296966      -1.24938945      -0.60738978
H        0.80189971       0.31815988      -1.43010948
H        0.67998971       0.24159991       0.33908987
H        3.08492877      -0.68712974      -1.30810946
H        2.97745887      -0.72253970       0.46503982
H        2.62230893       1.69639932       0.36681984
H        4.85100786       0.79006967       0.75768970
H        5.08657776       1.28991953      -2.26881909
H        5.29977798      -0.26312990      -1.43934947
H        6.45854721       1.03706961      -1.17992960
H        4.61896806       3.43131877      -0.78305971
H        5.95473757       2.96123876       0.28079990
H        4.34025810       3.20737882       0.95404959
