19
Properties=species:S:1:pos:R:3 atomization_energy=-1739.78 smiles=C.C.O.C.N.C.N.H.H.H.H.H.H.H.H.H.H.H.H pbc="F F F"
C        0.85012968      -0.19633993      -0.05494998
C        2.35866894       0.04564998      -0.18830993
O        2.98521881      -0.39039986       1.03583962
C        2.97059874      -0.76189972      -1.36212942
N        2.77269887      -2.20957902      -1.22030954
C        2.68369886       1.55231944      -0.37205985
N        2.35435913       2.33370909       0.83166969
H        0.31340987       0.13081995      -0.95094964
H        0.43492982       0.32927986       0.81149966
H        0.63002976      -1.25601946       0.11452996
H        2.90507891       0.38105984       1.63556932
H        4.05187830      -0.58204980      -1.39362945
H        2.54647910      -0.43529984      -2.31751902
H        2.99055890      -2.44293901      -0.24622991
H        3.45986854      -2.70160883      -1.78791924
H        2.15836915       1.96362922      -1.24072957
H        3.75980840       1.67263930      -0.54201978
H        1.33972947       2.38727902       0.93334966
H        2.66249899       3.29714870       0.69147975
