18
Properties=species:S:1:pos:R:3 atomization_energy=-1671.44 smiles=C.C.O.C.O.C.N.H.H.H.H.H.H.H.H.H.H.H pbc="F F F"
C        3.51502866      -1.04060956       1.23042953
C        2.81335877      -0.31836988       0.08671997
O        1.40209945      -0.41379982       0.32078986
C        3.17518867       1.17147953      -0.04638998
O        2.79360880       1.85862927       1.15968960
C        4.66470816       1.43175947      -0.32235987
N        4.91371823       2.88118895      -0.36726985
H        4.59660799      -1.08792962       1.07776963
H        3.13873866      -2.06618914       1.31636952
H        3.31498877      -0.55591976       2.19200920
H        3.02428877      -0.83775965      -0.85418969
H        1.21407948       0.26126990       1.00486961
H        2.56637896       1.61039941      -0.84702966
H        3.31631880       2.68853883       1.13680959
H        4.97409807       0.96629964      -1.26336949
H        5.28084809       1.02723960       0.48641982
H        4.44268844       3.28026874      -1.18119958
H        5.91046757       3.04021870      -0.52270978
