17
Properties=species:S:1:pos:R:3 atomization_energy=-1565.88 smiles=C.C.C.N.O.N.C.H.H.H.H.H.H.H.H.H.H pbc="F F F"
C        0.85603966      -0.10540996      -0.07779997
C        2.37975905      -0.14532993      -0.12773995
C        2.90436885      -0.89024965      -1.36991952
N        2.51175908      -2.30162921      -1.42716944
O        2.83482888       1.21721949      -0.17035994
N        4.12380835       1.29303948       0.38198984
C        4.49862826       2.52702890       0.37643985
H        0.52063978       0.48719980       0.78024969
H        0.42627984      -1.10751961       0.00754000
H        0.44726983       0.37832984      -0.97161961
H        2.74607893      -0.62668978       0.78921969
H        3.99839845      -0.82614969      -1.40015940
H        2.55049899      -0.38438986      -2.27619902
H        2.90726889      -2.78963887      -0.62362976
H        2.93651888      -2.72788887      -2.25012916
H        5.48702796       2.80263898       0.77411968
H        3.86890836       3.34468866      -0.01388000
