15
Properties=species:S:1:pos:R:3 atomization_energy=-1519.13 smiles=C.C.C.C.C.N.N.H.H.H.H.H.H.H.H pbc="F F F"
C       -1.39722945       0.70244972       0.16363994
C       -1.47347942      -0.78385967      -0.16801994
C       -0.26628990      -1.58779936       0.20581992
C        0.98279959      -1.14478956       0.37723986
C        1.47457946       0.24986991       0.21223992
N        0.92892964       1.34809942      -0.19893992
N       -0.35428986       1.35902940      -0.61955979
H       -2.36138908       1.15607950      -0.09566996
H       -1.25011945       0.87136966       1.23747954
H       -1.66830930      -0.92596960      -1.23921949
H       -2.33889905      -1.20349948       0.36040984
H       -0.44970981      -2.65205904       0.34876987
H        1.75995929      -1.84757930       0.66527975
H        2.53577899       0.35113985       0.50075980
H       -0.62830975       2.33188903      -0.77685969
