12
Properties=species:S:1:pos:R:3 atomization_energy=-1288.47 smiles=C.C.N.C.C.O.O.H.H.H.H.H pbc="F F F"
C        1.04553961      -0.02666999      -0.00477000
C        2.51639894       0.09278996      -0.00657000
N        3.26130882       1.18184959      -0.00796000
C        4.54479832       0.69342970      -0.00954999
C        4.51817838      -0.67795971      -0.00910000
O        5.40570766      -1.65602935      -0.00997000
O        3.22012861      -1.08112955      -0.00728000
H        0.57777979       0.96222961       0.00722000
H        0.70717973      -0.57668978       0.87811965
H        0.70372973      -0.55696977      -0.89832962
H        5.40020784       1.35183947      -0.01085000
H        6.28196731      -1.23820954      -0.01118999
