18
Properties=species:S:1:pos:R:3 atomization_energy=-1713.09 smiles=C.C.N.C.C.C.O.H.H.H.H.H.H.H.H.H.H.H pbc="F F F"
C        0.84084969      -0.56970979      -0.06116998
C        2.31406914      -0.18501992      -0.19135992
N        2.93640886      -0.97321964      -1.26201952
C        2.45611903       1.32447945      -0.45763983
C        3.88788846       1.76428930      -0.50901980
C        4.56378827       2.08450915      -1.81562925
O        4.06541839       3.11701874      -0.95282963
H        0.37326985      -0.02848999       0.76759969
H        0.72932969      -1.64072937       0.13791994
H        0.28303988      -0.33505986      -0.97401960
H        2.82611891      -0.43166983       0.74678969
H        2.46029914      -0.78904968      -2.14516920
H        2.80218882      -1.96737925      -1.07438952
H        1.96055923       1.87703923       0.35014986
H        1.93667924       1.59501944      -1.38617949
H        4.48397841       1.42995947       0.32917988
H        4.03096836       1.90036927      -2.73948905
H        5.63693796       1.95787923      -1.87960922
