17
Properties=species:S:1:pos:R:3 atomization_energy=-1611.86 smiles=C.C.C.C.O.N.N.H.H.H.H.H.H.H.H.H.H pbc="F F F"
C        1.34729953      -0.50678979      -0.10442995
C        2.86358884      -0.40487985      -0.13429995
C        3.32970876       1.04350961      -0.01887999
C        4.84117804       1.16138956      -0.02241999
O        5.61044772       0.21178992      -0.14011994
N        5.27454789       2.47488894       0.12157995
N        6.65526718       2.75918880       0.07605996
H        1.03591960      -1.55249935      -0.19046993
H        0.90000964       0.05049998      -0.93357966
H        0.94621963      -0.10925995       0.83336965
H        3.23798862      -0.84494970      -1.06634962
H        3.28195861      -0.99923960       0.68676973
H        2.95341876       1.48405941       0.91183962
H        2.93863897       1.62966931      -0.85893964
H        4.61170799       3.24743868       0.11298995
H        7.07817740       2.07808921      -0.56949978
H        7.05167706       2.48924911       0.98232962
