12
Properties=species:S:1:pos:R:3 atomization_energy=-1292.58 smiles=C.C.O.C.C.C.N.H.H.H.H.H pbc="F F F"
C        0.99970963      -0.06160998      -0.01053999
C        2.51999896       0.00000000       0.00000000
O        3.01867869      -0.67912971      -1.14676961
C        3.00201878       1.36116943       0.00000000
C        3.39929870       2.48306901       0.00000000
C        3.91444835       3.92977848      -0.00068000
N        4.29683845       5.02390826      -0.00235000
H        0.57222976       0.42693982       0.87131964
H        0.65967976      -1.10273957      -0.03308999
H        0.58789978       0.42303982      -0.90372963
H        2.89400889      -0.53417978       0.87953965
H        2.69814886      -0.20286991      -1.93143920
