14
Properties=species:S:1:pos:R:3 atomization_energy=-1435.09 smiles=C.C.C.O.C.N.O.H.H.H.H.H.H.H pbc="F F F"
C        1.01962961      -0.46060983       0.05673998
C        2.48020909      -0.04646999       0.03924998
C        2.64586885       1.45447938       0.03820999
O        1.72798930       2.27005904       0.01888999
C        4.08881833       1.96831918       0.05689998
N        4.20341835       3.33068856       0.04572998
O        5.03878824       1.20537947       0.07964997
H        0.93240960      -1.55152938       0.05272998
H        0.48895981      -0.07148997      -0.81890968
H        0.51390979      -0.07998997       0.95076960
H        2.96234877      -0.44787981      -0.85772964
H        2.98191882      -0.45053983       0.92420966
H        3.36814865       3.90623850       0.02696999
H        5.11758775       3.75829845       0.05726998
