14
Properties=species:S:1:pos:R:3 atomization_energy=-1459.88 smiles=C.C.O.C.C.C.N.H.H.H.H.H.H.H pbc="F F F"
C        0.25969990      -0.38506986       0.35863986
C        1.72294936      -0.21301993      -0.00459000
O        1.86598927       1.02713962      -0.69794971
C        3.11874873       1.37847947      -1.11964955
C        4.27849851       0.72290968      -0.96922959
C        5.49603770       1.24692947      -1.48166946
N        6.49390740       1.66645933      -1.89693921
H        0.09616996      -1.33185951       0.88095964
H       -0.36625986      -0.36350986      -0.53962976
H       -0.07658997       0.43544982       1.00115959
H        2.03700917      -1.04215957      -0.64903977
H        2.32574905      -0.20526992       0.91075964
H        3.05306892       2.33372903      -1.63450940
H        4.34240847      -0.22659990      -0.45540982
