16
Properties=species:S:1:pos:R:3 atomization_energy=-1555.53 smiles=C.C.N.C.C.O.O.H.H.H.H.H.H.H.H.H pbc="F F F"
C        2.05254925      -1.61218931       0.29245988
C        3.54923872      -1.36525946       0.40043983
N        3.80971851      -0.34803987       1.42580950
C        5.27770808      -0.14038995       1.56715942
C        5.51957769       1.13140958       2.37925918
O        4.40705826       1.91091925       2.42885892
O        6.58170757       1.44059939       2.89370887
H        1.84854926      -2.35888898      -0.48185981
H        1.51808944      -0.69430970       0.02451999
H        1.64195936      -1.98524922       1.23689956
H        3.92405838      -1.02576958      -0.57166978
H        4.05314828      -2.30496907       0.65416973
H        3.46130860      -0.71041973       2.32080917
H        5.74673789       0.00765000       0.58898979
H        5.72923771      -0.99005960       2.08809919
H        3.71100854       1.42734948       1.91874921
