14
Properties=species:S:1:pos:R:3 atomization_energy=-1454.72 smiles=C.C.C.C.N.C.O.H.H.H.H.H.H.H pbc="F F F"
C        0.99999962       0.00000000       0.00000000
C        2.44399905       0.00000000       0.00000000
C        3.63415853       0.00000000       0.00000000
C        5.07815797       0.00000000       0.00000000
N        5.57867770       1.35016942       0.03989998
C        6.92233710       1.60005937       0.06549997
O        7.80244683       0.75201969       0.06366997
H        0.60600979       1.02087959       0.01166000
H        0.60591977      -0.52048980       0.87826966
H        0.60591977      -0.50030980      -0.88991967
H        5.47612776      -0.48368981      -0.89863967
H        5.47669803      -0.53819980       0.86683968
H        4.92422782       2.12047909       0.03127999
H        7.14046738       2.68101885       0.08850997
