16
Properties=species:S:1:pos:R:3 atomization_energy=-1472.92 smiles=C.N.C.C.N.C.H.H.H.H.H.H.H.H.H.H pbc="F F F"
C        2.25951917      -0.48475982      -1.37199948
N        2.35465915       0.08857996      -0.03481998
C        3.21415871       1.27930951      -0.07293997
C        2.40428918       2.53847894      -0.46116981
N        3.07174875       3.25891874       0.65881976
C        3.26129873       1.93959922       1.32332945
H        1.59835942      -1.35653952      -1.34746948
H        3.23825861      -0.81441970      -1.73624936
H        1.83495933       0.22829991      -2.08595916
H        2.68847902      -0.62905974       0.60783975
H        4.19250831       1.17031956      -0.55492980
H        1.31626947       2.47423893      -0.33743988
H        2.61799886       2.94719880      -1.45304942
H        3.95093848       3.69631858       0.38273983
H        4.20880840       1.83565930       1.86165926
H        2.44274900       1.68900929       2.01059917
