20
Properties=species:S:1:pos:R:3 atomization_energy=-1868.72 smiles=C.C.C.C.O.C.N.H.H.H.H.H.H.H.H.H.H.H.H.H pbc="F F F"
C        0.97962961      -0.43175982      -0.11024995
C        2.48435893      -0.65178974      -0.11152996
C        3.24338876       0.67750974      -0.06998997
C        4.75915827       0.47549980      -0.01549999
O        5.19615816      -0.21259992      -1.19074956
C        5.50610774       1.82037926       0.06736997
N        6.95660722       1.59213933      -0.00931000
H        0.45612981      -1.39225941      -0.15358994
H        0.66862976       0.16405993      -0.97467963
H        0.65978972       0.08815997       0.79879970
H        2.76009896      -1.21635954      -1.00892962
H        2.75805886      -1.26398947       0.75523969
H        2.92019885       1.25733953       0.80312970
H        2.98229884       1.25570947      -0.96535965
H        5.02281819      -0.14772994       0.84772970
H        6.14306753       0.02632999      -1.27522944
H        5.25609793       2.34819897       0.99360959
H        5.22394790       2.45579907      -0.77955969
H        7.26161717       1.08856953       0.82377967
H        7.43319687       2.49374894       0.02149999
