14
Properties=species:S:1:pos:R:3 atomization_energy=-1370.83 smiles=C.C.C.N.C.N.H.H.H.H.H.H.H.H pbc="F F F"
C        0.68477972       0.09428996       0.03864998
C        2.16648917      -0.08996996       0.10110996
C        3.04655877       0.91423967      -0.00109000
N        4.41189847       0.80289970       0.05018998
C        5.37539813       1.76584933      -0.04753998
N        5.25787787       3.03376886      -0.21962991
H        0.27329989      -0.47726981      -0.79893968
H        0.40215985       1.14367956      -0.09235997
H        0.22508990      -0.26970988       0.96262962
H        2.51554909      -1.10992963       0.23791991
H        2.68932887       1.93168926      -0.13817994
H        4.74742789      -0.14640995       0.18210993
H        6.39003725       1.34025949       0.04041998
H        4.26979813       3.28241860      -0.28444990
