15
Properties=species:S:1:pos:R:3 atomization_energy=-1461.29 smiles=C.C.N.N.C.C.O.H.H.H.H.H.H.H.H pbc="F F F"
C        1.05886964      -0.07012997      -0.01075999
C        2.58103889       0.03513999       0.00796000
N        3.19098865      -1.05772961      -0.76525970
N        3.42021872      -0.70431975      -2.05737925
C        3.37565879       0.58878975      -2.08636920
C        3.09661878       1.25102948      -0.76733967
O        4.32355831       1.73781937      -0.24156991
H        0.61350976       0.77366971       0.52587979
H        0.72777974      -0.99223962       0.47798980
H        0.65840971      -0.06640998      -1.03003960
H        2.94745896       0.01831999       1.04018962
H        2.68387902      -1.94168927      -0.69018970
H        3.55578848       1.18907950      -2.98892884
H        2.37852918       2.06742922      -0.87267964
H        4.90150792       0.95476962      -0.14828994
