15
Properties=species:S:1:pos:R:3 atomization_energy=-1455.56 smiles=C.N.C.C.O.C.N.H.H.H.H.H.H.H.H pbc="F F F"
C        1.00681963      -0.01743999      -0.17525992
N        2.45517909       0.02663999      -0.36989987
C        3.03739890       1.21183953       0.26533991
C        4.50203827       1.23662957      -0.14118995
O        5.15231812      -0.00810000       0.15908994
C        4.37088809      -1.11345961       0.05398998
N        3.09924882      -1.15885956      -0.18487993
H        0.53428980       0.91332964      -0.50684982
H        0.75116971      -0.18814992       0.87618963
H        0.56873976      -0.82709966      -0.76902972
H        2.54770897       2.13354910      -0.06658997
H        2.94828887       1.13579951       1.35563946
H        5.02821808       2.02506923       0.40608984
H        4.62462836       1.43507939      -1.21265948
H        4.96611784      -2.02217916       0.22498992
