16
Properties=species:S:1:pos:R:3 atomization_energy=-1612.25 smiles=C.C.C.C.C.O.N.H.H.H.H.H.H.H.H.H pbc="F F F"
C        2.31420919      -0.54309976      -1.42872948
C        2.28324915       0.08676997      -0.04524998
C        3.22600869       1.27596952       0.01101999
C        2.78790889       2.59159896      -0.67954971
C        3.09063877       3.22455879       0.69003975
O        3.33454873       4.31462831       1.14044959
N        3.09290875       2.00051917       1.28856943
H        1.66301930      -1.42195943      -1.46186940
H        3.32880869      -0.85801964      -1.69427936
H        1.97288928       0.16429993      -2.19135920
H        2.58779910      -0.66398977       0.69353971
H        1.25549953       0.38234986       0.19663992
H        4.27406808       1.00476963      -0.17299994
H        1.73638928       2.66693902      -0.97025961
H        3.43571867       2.93109880      -1.48999942
H        3.64244863       1.89711925       2.13109921
