14
Properties=species:S:1:pos:R:3 atomization_energy=-1377.12 smiles=C.C.C.N.O.C.O.H.H.H.H.H.H.H pbc="F F F"
C        0.98277959      -0.00585000       0.18443992
C        2.46686909       0.04728998      -0.10817996
C        3.30144867       1.04473959       0.73390969
N        4.27078828      -0.05455998       0.91703966
O        4.72291795      -0.17837994       2.25113899
C        3.33973868      -1.01433961       0.59197979
O        3.24318867      -2.18199922       0.88800965
H        0.52170979      -0.86017965      -0.32209987
H        0.48748980       0.90261963      -0.17425993
H        0.78221970      -0.10071996       1.25676951
H        2.67120897       0.09956996      -1.18595956
H        2.84820899       1.38799943       1.66953929
H        3.71555858       1.89049921       0.18060993
H        5.53462773      -0.70446970       2.12075918
