16
Properties=species:S:1:pos:R:3 atomization_energy=-1628.6 smiles=C.N.C.C.C.C.O.H.H.H.H.H.H.H.H.H pbc="F F F"
C        1.11698960      -0.01685999       0.19338993
N        2.50127900       0.00877999      -0.21443992
C        3.29745881       1.20415958      -0.13275994
C        4.57760795       0.81117970      -0.84235964
C        4.71385824      -0.67835972      -0.54652976
C        3.28405876      -1.12796955      -0.36111987
O        2.91278889      -2.28687919      -0.29837988
H        0.69378971      -1.01557962       0.05600998
H        0.55754976       0.70405972      -0.40873983
H        1.05472958       0.25665990       1.25047953
H        3.47476870       1.43483943       0.92323963
H        2.79012890       2.04152918      -0.61946977
H        4.46374801       0.95878964      -1.92361920
H        5.44329795       1.39261949      -0.51327978
H        5.18842773      -1.21254947      -1.37322947
H        5.26221797      -0.85294967       0.38422985
