14
Properties=species:S:1:pos:R:3 atomization_energy=-1426.77 smiles=C.C.C.C.O.N.C.H.H.H.H.H.H.H pbc="F F F"
C        0.80280969       0.50518979      -0.11406996
C        2.09268922       0.19950992       0.08644996
C        3.28051880       1.12439956       0.01540999
C        3.95841833       1.35396953       1.35233947
O        3.43831869       2.59830895       1.84231933
N        3.02924885       3.36464857       0.72416970
C        2.94562880       2.54826889      -0.27059988
H        0.03576998      -0.26018989      -0.03186999
H        0.46399980       1.51094935      -0.34276987
H        2.33004903      -0.83752964       0.32392987
H        3.98469838       0.74439973      -0.73061973
H        5.04246823       1.46644947       1.23599950
H        3.76721861       0.56622976       2.08757913
H        2.64145886       2.86004889      -1.27993945
