18
Properties=species:S:1:pos:R:3 atomization_energy=-1714.67 smiles=C.C.C.O.C.C.N.H.H.H.H.H.H.H.H.H.H.H pbc="F F F"
C        2.43992895      -0.49356981      -1.51649937
C        2.33380902       0.10066996      -0.12122995
C        3.50889852       1.03279959       0.15963994
O        3.42040873       2.25198909      -0.63138977
C        3.06959889       3.02001883       0.55021979
C        3.41948873       1.84316931       1.47268937
N        4.76526822       2.03845919       2.03817923
H        1.60788934      -1.17979952      -1.70224937
H        3.37560857      -1.04947957      -1.63634940
H        2.41440917       0.28871989      -2.28192921
H        2.32846918      -0.71205969       0.61403979
H        1.38019949       0.63231974      -0.02305999
H        4.47203810       0.53204979      -0.00473000
H        3.67395849       3.92761852       0.64127977
H        2.00953925       3.29375862       0.53325978
H        2.65081883       1.55101942       2.19099912
H        5.45033799       2.36444910       1.35255950
H        5.16499776       1.19397953       2.44582896
