17
Properties=species:S:1:pos:R:3 atomization_energy=-1633.9 smiles=C.C.N.C.O.N.C.H.H.H.H.H.H.H.H.H.H pbc="F F F"
C        1.61134930      -0.43442983      -1.06177952
C        2.57834904      -0.10376996       0.05833998
N        3.59189860       0.83137970      -0.38411984
C        4.74000834       0.99218959       0.35184985
O        5.02671822       0.34014985       1.34530952
N        5.52933786       1.97778917      -0.18706993
C        6.83990755       2.21832911       0.36176985
H        0.84592969      -1.13373960      -0.71270970
H        2.13628916      -0.89206966      -1.90647922
H        1.11193957       0.46788980      -1.42887949
H        3.06225883      -1.01737963       0.42163982
H        2.04789916       0.35393985       0.90081962
H        3.26307868       1.68388937      -0.81304966
H        5.42254774       2.09770922      -1.18314959
H        6.78187741       2.30549922       1.45039943
H        7.23175730       3.14370883      -0.06694997
H        7.49321689       1.38155943       0.09848996
