14
Properties=species:S:1:pos:R:3 atomization_energy=-1440.03 smiles=C.C.C.N.C.O.O.H.H.H.H.H.H.H pbc="F F F"
C        1.02720957      -0.03553999       0.10714996
C        2.53785896       0.02284999      -0.00702000
C        3.15687876       1.17643948       0.75395968
N        4.37463823       0.60231975       1.21008949
C        4.25876822      -0.76066967       1.24601957
O        5.03494826      -1.51467944       1.80357930
O        3.11945879      -1.14574956       0.59728978
H        0.64062976      -0.91318966      -0.42170985
H        0.56367977       0.86058963      -0.31567987
H        0.71296972      -0.13735994       1.15153956
H        2.83828885       0.03426999      -1.06156958
H        2.57234911       1.46566938       1.63358940
H        3.34664877       2.05598915       0.13443995
H        5.05278807       1.04566956       1.81543924
