13
Properties=species:S:1:pos:R:3 atomization_energy=-1299.28 smiles=C.C.O.N.C.C.N.H.H.H.H.H.H pbc="F F F"
C        1.12039961      -0.07940997       0.60028975
C        2.51999896       0.00000000       0.00000000
O        2.47556897      -0.49019980      -1.35024941
N        2.61649901      -1.88952925      -1.34973945
C        2.62957885      -2.30262920      -2.57155906
C        3.00201878       1.36116943       0.00000000
N        3.38622869       2.44615901       0.00000000
H        1.10307959       0.29957987       1.62735934
H        0.76005972      -1.11406950       0.60794977
H        0.40283985       0.49922979       0.00773000
H        3.20642879      -0.62150974       0.58928975
H        2.73683881      -3.37655860      -2.78779887
H        2.53869897      -1.62360932      -3.43674869
