18
Properties=species:S:1:pos:R:3 atomization_energy=-1735.96 smiles=C.C.O.C.C.N.C.H.H.H.H.H.H.H.H.H.H.H pbc="F F F"
C        0.98155963       0.01163999       0.00364000
C        2.50176903       0.02203999       0.02355999
O        2.94794873       0.17152993      -1.33164944
C        3.08350890       1.14503950       0.86941964
C        4.47543801       0.62981977       1.18993958
N        4.31385820      -0.81181968       1.37993946
C        3.11194865      -1.24276954       0.64668975
H        0.56252977      -0.09003996       1.00974957
H        0.60844977      -0.81497968      -0.61131978
H        0.59313976       0.93454962      -0.44078984
H        3.90458850      -0.00227000      -1.35106949
H        2.51365913       1.27747948       1.79675928
H        3.12812889       2.10057911       0.33807985
H        5.15909776       0.82185968       0.35438985
H        4.89119817       1.10437960       2.08383920
H        5.14051810      -1.31898948       1.06894964
H        3.37604864      -1.98458925      -0.11440996
H        2.43005901      -1.70780936       1.36604951
