14
Properties=species:S:1:pos:R:3 atomization_energy=-1457.71 smiles=C.C.N.C.C.C.O.H.H.H.H.H.H.H pbc="F F F"
C        0.97788960      -0.42475984      -0.23347990
C        2.27537919      -0.10210996      -0.14933994
N        2.88486894       1.14532956      -0.00971000
C        2.07336922       2.26749914       0.10137996
C        2.46426907       3.54392866       0.21053992
C        4.28495819       1.19173958       0.01763999
O        5.05657809       0.24004990      -0.07767997
H        0.69929974      -1.46980938      -0.34396987
H        0.15716993       0.27822991      -0.20783992
H        2.98387893      -0.93171960      -0.20255993
H        1.00021959       2.10499920       0.10326996
H        3.49355855       3.87835842       0.22033991
H        1.71425933       4.32680834       0.29232990
H        4.68918832       2.20478902       0.14166995
