17
Properties=species:S:1:pos:R:3 atomization_energy=-1589.29 smiles=C.C.O.C.C.N.N.H.H.H.H.H.H.H.H.H.H pbc="F F F"
C        1.44035943       0.06864997       0.07101997
C        2.48059895       1.17097953       0.12468995
O        3.77695860       0.56601976       0.00478000
C        4.84201830       1.41158950       0.02535999
C        6.13471739       0.65369976      -0.07266997
N        4.70084805       2.70181902       0.11761995
N        5.84356749       3.42814874       0.11285995
H        0.43114984       0.47955981       0.16555993
H        1.60422940      -0.65622976       0.87553962
H        1.51091945      -0.48205982      -0.87280965
H        2.40763913       1.70053932       1.08075963
H        2.31888917       1.86968932      -0.70324974
H        5.95015776      -0.42342983      -0.12400995
H        6.74887753       0.85563965       0.80944966
H        6.67215722       0.95455962      -0.97628963
H        5.62448794       4.39972803       0.34813986
H        6.24066775       3.47174855      -0.82928970
