10
Properties=species:S:1:pos:R:3 atomization_energy=-1179.84 smiles=C.C.C.C.N.C.O.H.H.H pbc="F F F"
C        0.97449959      -0.06708998      -0.00153000
C        2.17295920       0.00378000       0.00056000
C        3.58216871       0.08650997       0.00301000
C        4.46423804       1.13658956       0.00076000
N        5.75221752       0.65654972       0.00512000
C        5.58901773      -0.64916972       0.00975000
O        4.29431817      -1.07485962       0.00883000
H       -0.08835996      -0.13536995      -0.00336000
H        4.24908830       2.19549919      -0.00368000
H        6.34976771      -1.41724941       0.01416999
