18
Properties=species:S:1:pos:R:3 atomization_energy=-1717.88 smiles=C.C.O.C.C.C.N.H.H.H.H.H.H.H.H.H.H.H pbc="F F F"
C        3.54558850      -0.45153981      -1.81250929
C        2.94535880      -0.29291987      -0.42315983
O        3.40442859      -1.35986941       0.40588984
C        3.24345866       1.06451959       0.23087991
C        4.71400813       1.36743948       0.34199985
C        5.28893783       1.87067922       1.64148939
N        5.55824796       0.51204979       1.17630953
H        3.21586876       0.34885985      -2.48179903
H        3.24418865      -1.41210943      -2.24538912
H        4.64032841      -0.46056981      -1.78121934
H        1.85813924      -0.40512985      -0.50106979
H        4.24024812      -1.05515961       0.81909968
H        2.78733888       1.07868963       1.22926957
H        2.76832900       1.86414926      -0.34993986
H        5.14787810       1.71684938      -0.58790975
H        4.64488804       1.95243921       2.50848912
H        6.11533784       2.56964891       1.60844939
H        6.50787746       0.44949981       0.79834967
