13
Properties=species:S:1:pos:R:3 atomization_energy=-1366.5 smiles=C.C.N.C.C.O.N.H.H.H.H.H.H pbc="F F F"
C        0.99985958       0.00715000      -0.00408000
C        2.48029892       0.04532998      -0.00602000
N        3.24573872       1.11821959      -0.00924000
C        4.53629829       0.65053975      -0.01037000
C        4.55646814      -0.72403969      -0.00784000
O        5.51829786      -1.63499930      -0.00772000
N        3.24224873      -1.09601961      -0.00503000
H        0.58837978       1.02104960       0.00806000
H        0.62894972      -0.52181981       0.87911964
H        0.62674978      -0.50152979      -0.89834968
H        5.37501812       1.33396950      -0.01300000
H        6.36757725      -1.15700959      -0.01015000
H        2.90361892      -2.04639917      -0.00274000
