16
Properties=species:S:1:pos:R:3 atomization_energy=-1580.87 smiles=C.C.O.C.N.C.C.H.H.H.H.H.H.H.H.H pbc="F F F"
C        3.20537884      -1.82454928       0.71277972
C        2.87151885      -0.55242977      -0.02860999
O        2.20161923      -0.57656980      -1.06375956
C        3.34352869       0.75766970       0.58432980
N        4.80799799       0.74097969       0.69192972
C        5.48152765       1.52575942      -0.33972988
C        5.36526804       2.03450920       1.07355961
H        4.28273818      -2.00053923       0.69082974
H        2.70156896      -2.66793900       0.23487990
H        2.85440877      -1.74849929       1.74456936
H        2.89072883       0.84179966       1.57848934
H        2.95409880       1.58388936      -0.02541999
H        4.89024789       2.00079926      -1.11305954
H        6.44401747       1.15109949      -0.66691971
H        6.24867775       1.99976924       1.69978939
H        4.68724840       2.85374893       1.27662950
