16
Properties=species:S:1:pos:R:3 atomization_energy=-1563.52 smiles=C.C.C.N.C.O.O.H.H.H.H.H.H.H.H.H pbc="F F F"
C        0.89160966      -0.02137999       0.08489997
C        2.40247895       0.09887996      -0.09048997
C        2.94236893      -0.68184971      -1.29548949
N        2.36146907      -0.22189992      -2.56830903
C        2.79231889       1.56577941      -0.12676995
O        2.75232892       2.12719918      -1.35612949
O        3.05152869       2.21460925       0.87826966
H        0.57492977       0.45538982       1.01923963
H        0.58436980      -1.07144961       0.12143995
H        0.34566985       0.47100982      -0.72683974
H        2.88801879      -0.32497989       0.79874968
H        2.74251904      -1.75271928      -1.17664954
H        4.02982833      -0.55532981      -1.35335952
H        1.40104950      -0.57700980      -2.63808897
H        2.85241889      -0.70011969      -3.33245867
H        2.53242904       1.45429947      -2.05167921
