20
Properties=species:S:1:pos:R:3 atomization_energy=-1862.12 smiles=C.C.C.N.C.C.O.H.H.H.H.H.H.H.H.H.H.H.H.H pbc="F F F"
C        1.23194958      -0.11019996       0.73919968
C        2.40952909      -0.13471994      -0.24282990
C        2.27687905      -1.28962947      -1.25441955
N        1.14269951      -1.13476949      -2.16091921
C        2.56226898       1.25250953      -0.90454965
C        3.77589855       1.37939947      -1.82016932
O        4.97406830       1.10550954      -1.10539952
H        1.41064944       0.62249976       1.53357943
H        1.10009956      -1.08799952       1.21402952
H        0.29369989       0.15961994       0.24395990
H        3.31214878      -0.33179986       0.35102987
H        2.17136926      -2.23834908      -0.71504969
H        3.19290863      -1.37403946      -1.84832923
H        0.27296990      -1.18131956      -1.63187936
H        1.11994957      -1.92701924      -2.80247900
H        2.65651900       2.00022924      -0.10610996
H        1.65848932       1.50837935      -1.47026938
H        3.84282841       2.39599908      -2.22124909
H        3.71690855       0.69518971      -2.67076890
H        5.03987780       1.76201933      -0.39095984
