16
Properties=species:S:1:pos:R:3 atomization_energy=-1525.53 smiles=C.C.C.C.O.N.O.H.H.H.H.H.H.H.H.H pbc="F F F"
C        1.04410959      -0.33260988       0.23130990
C        2.44588901       0.07283998      -0.21923992
C        2.93816887      -0.85617964      -1.32651942
C        2.46713909       1.52587941      -0.67875973
O        2.73598896       1.88791925      -1.82287923
N        2.16645915       2.43643896       0.30895988
O        2.31107902       3.79555844      -0.05893998
H        0.70773972       0.27087991       1.08075963
H        1.02228962      -1.38245950       0.54152981
H        0.31572986      -0.19863993      -0.57604980
H        3.13479876      -0.01350999       0.63058975
H        2.28697911      -0.80970968      -2.20648923
H        2.96864872      -1.89452919      -0.98002962
H        3.94842854      -0.57908976      -1.64703929
H        2.26773911       2.22490915       1.29568946
H        2.56191900       3.72964850      -1.00749960
