19
Properties=species:S:1:pos:R:3 atomization_energy=-1754.89 smiles=C.C.N.C.C.C.H.H.H.H.H.H.H.H.H.H.H.H.H pbc="F F F"
C        0.98358964      -0.15729993       0.72913974
C        2.49786900      -0.02618999       0.87801966
N        3.02366880       1.29864943       0.50083979
C        2.44518905       2.36408902       1.32640953
C        4.49427807       1.34494944       0.61027974
C        5.20598797       0.50457981      -0.44557981
H        0.68650970      -1.20292946       0.86251965
H        0.65376972       0.16060993      -0.26504989
H        0.44872982       0.43005983       1.48146936
H        2.93527893      -0.79040968       0.22655991
H        2.78068894      -0.28077990       1.90748931
H        1.36733943       2.45665901       1.15825952
H        2.86793878       3.33870866       1.05411957
H        2.62271897       2.19998917       2.39514898
H        4.82521809       1.04200962       1.61203930
H        4.83448823       2.37831899       0.46383983
H        5.04904802      -0.56692979      -0.29477987
H        6.28511741       0.68523972      -0.39699983
H        4.86811793       0.76895970      -1.45295946
