17
Properties=species:S:1:pos:R:3 atomization_energy=-1580.34 smiles=C.C.N.C.C.N.O.H.H.H.H.H.H.H.H.H.H pbc="F F F"
C        0.98647959      -0.13057995      -0.15847994
C        2.49315898       0.03082999      -0.00364000
N        3.22395875      -0.77142971      -0.99480961
C        2.89845875       1.50565935      -0.10955996
C        2.78034880       2.20868905      -1.44547948
N        3.31044882       2.10244914       0.97363965
O        3.63806866       3.44181853       0.72977972
H        0.45504984       0.48523982       0.57574978
H        0.68629970      -1.17322957      -0.00457000
H        0.64020975       0.17624993      -1.15170950
H        2.78339897      -0.32329986       0.99299964
H        2.84429887      -0.61192973      -1.92678924
H        3.06497871      -1.75992927      -0.80024965
H        2.30299912       1.57148942      -2.19268923
H        3.77898860       2.47828910      -1.80076933
H        2.17560918       3.11319870      -1.33552941
H        3.97078837       3.73543850       1.59859938
