15
Properties=species:S:1:pos:R:3 atomization_energy=-1449.87 smiles=C.C.O.N.N.C.C.H.H.H.H.H.H.H.H pbc="F F F"
C        2.52646898      -1.03886961       1.39156941
C        2.14024924      -0.15743994       0.23232990
O        1.07330955      -0.29634988      -0.36595987
N        3.01406886       0.84164965      -0.12925995
N        4.32258835       0.88854964       0.34432988
C        4.90081804       2.18720910       0.00406000
C        4.38641807       1.91428925       1.38653944
H        3.44085866      -1.59181937       1.16036951
H        1.72599929      -1.76118928       1.57852933
H        2.66418886      -0.43695983       2.29392908
H        2.76626896       1.31319948      -0.99318958
H        4.34898826       2.87560889      -0.62425977
H        5.97397783       2.19531903      -0.14510995
H        5.10894793       1.73459937       2.17311918
H        3.47043870       2.39692918       1.70641927
