20
Properties=species:S:1:pos:R:3 atomization_energy=-1864.13 smiles=C.C.N.C.C.C.O.H.H.H.H.H.H.H.H.H.H.H.H.H pbc="F F F"
C        1.30521951      -0.74478971      -0.12564995
C        2.81210897      -0.67575976      -0.37519986
N        3.10066869      -1.07575956      -1.75390927
C        3.34028876       0.74246971      -0.10216996
C        4.84780829       0.92716963      -0.33054988
C        5.72509796       0.03990998       0.54441976
O        5.46999762       0.28536991       1.92213928
H        1.07371959      -0.48183982       0.91209965
H        0.92315964      -1.75617937      -0.30394988
H        0.75611969      -0.05624998      -0.77794969
H        3.29942876      -1.38647951       0.30051987
H        2.60775901      -0.45936981      -2.39979894
H        2.72658886      -2.00967917      -1.92068926
H        3.09809870       1.02164958       0.93144961
H        2.80984884       1.46112944      -0.74154971
H        5.08550787       1.97644917      -0.11576995
H        5.09553804       0.75681973      -1.38397941
H        6.78371741       0.24379990       0.35155986
H        5.55428787      -1.02183959       0.34644987
H        5.69751765       1.21517951       2.09477915
