16
Properties=species:S:1:pos:R:3 atomization_energy=-1530.77 smiles=C.C.C.N.C.C.C.H.H.H.H.H.H.H.H.H pbc="F F F"
C       -1.82887928       0.97656959       0.39011983
C       -1.33348944      -0.36130985      -0.09703996
C       -0.24043991      -1.19890958       0.43871984
N        0.70639971      -0.45782983      -0.37977987
C        1.97065918      -0.07277997       0.10629996
C        0.78670969       0.89729966       0.16278993
C       -0.59968977       0.90507967      -0.49286981
H       -2.74114888       1.36513948      -0.04885998
H       -1.71185928       1.21205957       1.44123943
H       -1.90659921      -0.86732965      -0.86690965
H       -0.10857996      -1.11216957       1.52335938
H       -0.31338987      -2.24594904       0.13547995
H        2.32957919      -0.51686979       1.02568959
H        2.73754887       0.12650995      -0.63177975
H        0.70202971       1.18716948       1.21665956
H       -0.69419975       1.26996946      -1.51265940
