17
Properties=species:S:1:pos:R:3 atomization_energy=-1595.62 smiles=C.C.N.N.C.C.O.H.H.H.H.H.H.H.H.H.H pbc="F F F"
C        0.85661964       0.18934993      -0.29001989
C        2.28408916      -0.22858991       0.02598999
N        3.16270887       0.94304965      -0.01162000
N        4.50105821       0.59705978       0.27263989
C        4.93905783       0.42292983       1.64427929
C        5.40194792       0.46668981      -0.77246969
O        6.58932747       0.18019992      -0.66123974
H        0.19538992      -0.68303971      -0.27095990
H        0.78769971       0.64291973      -1.28462953
H        0.48242979       0.91158963       0.44352981
H        2.61175896      -0.96988963      -0.71188975
H        2.31003916      -0.70044974       1.01495959
H        2.84614896       1.64385941       0.66198973
H        4.15312848       0.71623975       2.34570896
H        5.83118761       1.03213962       1.81788925
H        5.19784777      -0.62902978       1.79668926
H        4.93538793       0.64531971      -1.75620928
