18
Properties=species:S:1:pos:R:3 atomization_energy=-1694.5 smiles=C.C.C.C.O.N.C.H.H.H.H.H.H.H.H.H.H.H pbc="F F F"
C        0.57171980      -0.81202968       0.08733996
C        2.08181916      -0.62782975      -0.07734997
C        2.61385886      -1.55576943      -1.16717955
C        2.43487904       0.82909970      -0.39584983
O        2.03487924       1.66284936       0.69406973
N        2.35627912       2.99171887       0.37859984
C        1.98990927       3.74506847       1.35866945
H        0.18477992      -0.19729992       0.90662961
H        0.33137986      -1.85600931       0.31597986
H        0.03614999      -0.53444978      -0.82705966
H        2.55131907      -0.89992965       0.87648966
H        2.16668927      -1.32453950      -2.14014907
H        2.39008898      -2.60174898      -0.93163961
H        3.70074850      -1.46060939      -1.26250954
H        1.92716925       1.15930959      -1.31061952
H        3.51746870       0.93186962      -0.53851982
H        2.15509919       4.83179787       1.30727954
H        1.50741936       3.35329871       2.27013903
