13
Properties=species:S:1:pos:R:3 atomization_energy=-1366.08 smiles=C.C.C.N.C.N.O.H.H.H.H.H.H pbc="F F F"
C        1.03141959      -0.07201997       0.00165000
C        2.49410901       0.08214997      -0.01623000
C        3.36239878       1.14710950       0.01315000
N        4.65698833       0.69451970      -0.02694999
C        4.52883837      -0.60777977      -0.09164996
N        5.48263790      -1.53689934      -0.14133995
O        3.24426864      -1.05998961      -0.07707997
H        0.53421978       0.90257963       0.01897999
H        0.71556974      -0.63146976       0.88733965
H        0.69110970      -0.61179978      -0.88721966
H        3.13001885       2.20119910       0.06151997
H        5.22465796      -2.46870909       0.15442995
H        6.40280723      -1.23741949       0.15459994
