14
Properties=species:S:1:pos:R:3 atomization_energy=-1428.31 smiles=C.C.N.O.C.C.C.H.H.H.H.H.H.H pbc="F F F"
C        1.09049961      -0.05010998      -0.08428996
C        2.55947896       0.16690993      -0.10702996
N        3.13672885       1.25853949      -0.50155982
O        4.55665839       1.12051959      -0.36668986
C        4.80489835      -0.14720995       0.28754989
C        4.57417826      -1.40325941      -0.49909981
C        3.48793863      -0.85066967       0.38506986
H        0.86285966      -1.11842953      -0.12346995
H        0.62655977       0.44968981      -0.93896965
H        0.68135975       0.36992986       0.83879969
H        5.47547775      -0.16892994       1.13594952
H        5.08593784      -2.30174907      -0.17621993
H        4.46643837      -1.31371954      -1.57415934
H        3.25243862      -1.35273941       1.31323948
