14
Properties=species:S:1:pos:R:3 atomization_energy=-1304.31 smiles=C.C.C.C.H.H.H.H.H.H.H.H.H.H pbc="F F F"
C        0.97984964      -0.05752997       0.00096000
C        2.49876906       0.00482000      -0.00385000
C        2.99901881       1.44762947       0.01524999
C        4.51797803       1.50996942       0.00991000
H        0.64293973      -1.09896962      -0.01250999
H        0.56237976       0.44576982      -0.87728967
H        0.57030977       0.41915985       0.89749964
H        2.87624880      -0.50877980      -0.89536964
H        2.88371882      -0.53502976       0.86924964
H        2.62089891       1.96130929       0.90684965
H        2.61356894       1.98717918      -0.85766965
H        4.93438820       1.00664962       0.88835963
H        4.85456825       2.55131907       0.02380999
H        4.92714830       1.03255956      -0.88617968
