15
Properties=species:S:1:pos:R:3 atomization_energy=-1466.69 smiles=C.C.O.C.C.N.N.H.H.H.H.H.H.H.H pbc="F F F"
C        1.02925957      -0.06710997      -0.14819993
C        2.48623905       0.13358996       0.06508998
O        3.32020874      -0.47183980      -0.92669966
C        3.30569869       0.97176962      -0.88380966
C        4.56536837       1.58813937      -0.42438982
N        4.48105844       2.84167891       0.07931997
N        5.67886785       0.94825960      -0.49890980
H        0.46252982       0.70327970       0.38344986
H        0.72252973      -1.04398960       0.23805990
H        0.75786968      -0.01934999      -1.20790947
H        2.78638885       0.04998998       1.10098953
H        2.80885895       1.47539940      -1.70412936
H        3.62619849       3.09929878       0.55457976
H        5.32457811       3.10980888       0.57630977
H        5.49249800       0.01828999      -0.90182964
