18
Properties=species:S:1:pos:R:3 atomization_energy=-1745.44 smiles=C.C.C.N.C.C.O.H.H.H.H.H.H.H.H.H.H.H pbc="F F F"
C        1.14190958      -0.02572999       0.08054996
C        2.61500899       0.10298996      -0.31507989
C        3.18883878      -1.25510955      -0.72104969
N        2.79377887       1.13642958      -1.34676951
C        2.52512910       0.82659966      -2.74094903
C        2.99242893       2.45064899      -0.95745960
O        3.08660879       2.85296897       0.19457992
H        0.74398969       0.93460962       0.42490984
H        1.01897960      -0.75159969       0.89100967
H        0.52736980      -0.35450986      -0.76374969
H        3.16239876       0.43147982       0.57754978
H        2.63914902      -1.69448930      -1.55978932
H        3.13796880      -1.96019929       0.11534995
H        4.23834857      -1.15896958      -1.01798958
H        3.27231880       0.11389996      -3.10132879
H        2.57493904       1.72596926      -3.36203870
H        1.52457940       0.39462984      -2.83161897
H        3.08330880       3.14177875      -1.81174927
