15
Properties=species:S:1:pos:R:3 atomization_energy=-1497.58 smiles=C.C.C.C.C.N.N.H.H.H.H.H.H.H.H pbc="F F F"
C        0.86683968      -1.17014949       0.85613964
C        1.19575947      -0.32722986      -0.35465984
C        1.01340958       1.14418953      -0.44011984
C       -0.20329992       1.61119942       0.31452987
C       -1.30369947       0.61289975       0.15680994
N       -1.15871951      -0.64827975      -0.11129996
N        0.04613998      -1.21824950      -0.35873985
H        1.46283937      -2.05669921       1.03633961
H        0.45522981      -0.72005973       1.74927937
H        2.02939924      -0.65515975      -0.96675965
H        1.90604925       1.65831938      -0.06751997
H        0.91159966       1.41753947      -1.49786938
H        0.00072000       1.71103933       1.38631940
H       -0.54192976       2.58657908      -0.04805998
H       -2.32569909       0.97326960       0.36109984
