15
Properties=species:S:1:pos:R:3 atomization_energy=-1432.78 smiles=C.C.N.O.N.C.C.H.H.H.H.H.H.H.H pbc="F F F"
C        1.05078962       0.45327983       0.12623995
C        2.32398904      -0.37165985       0.04324999
N        2.20396920      -1.75488933      -0.01315000
O        0.97590962      -2.21175916      -0.50003981
N        3.42934857       0.31445988       0.02257999
C        4.62298821      -0.34564985       0.02162999
C        5.66650766       0.09680996      -0.68542972
H        1.28190953       1.50273937       0.33057987
H        0.41484984       0.07077997       0.92963964
H        0.51314980       0.39067985      -0.82415968
H        2.99546876      -2.20379913      -0.47101982
H        0.46056981      -2.37266904       0.31401988
H        4.74005830      -1.21611958       0.66357973
H        5.57955784       0.98594963      -1.30062948
H        6.62233745      -0.41179985      -0.65165973
