18
Properties=species:S:1:pos:R:3 atomization_energy=-1717.74 smiles=C.C.N.C.O.C.C.H.H.H.H.H.H.H.H.H.H.H pbc="F F F"
C        0.15396995      -1.02917959       0.62897975
C        1.60533940      -1.12297957       0.15687994
N        1.72716935      -2.18087912      -0.85876969
C        2.11577917       0.22692990      -0.39195983
O        1.26414944       0.67168972      -1.45551949
C        1.58711932       1.84909922      -2.06595914
C        2.61778892       2.66878885      -1.82927923
H        0.04396998      -0.24040990       1.38052941
H       -0.16836994      -1.97057918       1.08756954
H       -0.53194980      -0.80804966      -0.19595992
H        2.23369912      -1.40618948       1.00910960
H        1.27095949      -1.85399924      -1.71380930
H        1.21126952      -3.00757889      -0.56158977
H        3.14314866       0.10627996      -0.75832968
H        2.10719915       0.96778960       0.41721983
H        0.85247964       2.06498918      -2.83498886
H        3.36780876       2.47475899      -1.07291957
H        2.73263901       3.57560860      -2.41492897
