18
Properties=species:S:1:pos:R:3 atomization_energy=-1706.79 smiles=C.C.N.C.C.C.O.H.H.H.H.H.H.H.H.H.H.H pbc="F F F"
C        0.93733965       0.10955996       0.19958992
C        2.35317898      -0.44373981       0.25153990
N        3.31481869       0.62432973      -0.02029999
C        4.68130802       0.10047996      -0.02699999
C        5.61226804       1.20822956      -0.40058984
C        6.38733731       1.97856925       0.63651972
O        6.99331738       0.93051964      -0.13023995
H        0.21384992      -0.68771976       0.40119986
H        0.71160972       0.52627979      -0.78826966
H        0.78858968       0.89622965       0.94725961
H        2.44662910      -1.24062952      -0.49453980
H        2.53403892      -0.87964966       1.24100953
H        3.23373861       1.34288941       0.69830972
H        4.77855800      -0.69898975      -0.77131969
H        4.93845830      -0.31447988       0.95501962
H        5.37521796       1.67500932      -1.34733953
H        6.20351752       1.78522926       1.68574930
H        6.67941730       2.99580890       0.40688983
