15
Properties=species:S:1:pos:R:3 atomization_energy=-1458.86 smiles=C.N.C.C.C.C.H.H.H.H.H.H.H.H.H pbc="F F F"
C        1.07265954      -0.14606994      -0.15659993
N        2.49079893       0.00200000       0.14029995
C        2.96069877       1.38567949       0.00000000
C        2.44290898       2.27707915       1.13081950
C        4.40469846       1.38567949       0.00000000
C        5.59485769       1.38567949       0.00000000
H        0.80496970      -1.20703956      -0.10993996
H        0.82985966       0.21348992      -1.16161956
H        0.44605981       0.37266986       0.57400976
H        3.01910892      -0.57958976      -0.51009981
H        2.61719897       1.79560929      -0.95838963
H        2.71741889       1.88012928       2.11608916
H        1.35340948       2.38178905       1.09932957
H        2.86657897       3.28635876       1.05724961
H        6.66024719       1.38114952       0.00695000
