19
Properties=species:S:1:pos:R:3 atomization_energy=-1740.29 smiles=C.C.O.C.N.C.N.H.H.H.H.H.H.H.H.H.H.H.H pbc="F F F"
C        2.98306895      -1.24388952      -0.81584966
C        2.62712897      -0.17375992       0.20672992
O        3.00846887      -0.63813976       1.50828940
C        3.27112880       1.21296948      -0.08194997
N        2.87712894       2.16181903       0.99070961
C        4.81955830       1.16874956      -0.15941994
N        5.43406767       0.77601967       1.12207950
H        2.75997885      -0.91212962      -1.83380934
H        2.41094895      -2.15654909      -0.61572978
H        4.03785852      -1.52917940      -0.75342972
H        1.53593935      -0.06106997       0.22143992
H        3.97616832      -0.47048983       1.57705938
H        2.89126882       1.59371942      -1.03726958
H        3.01418871       1.66270931       1.87690928
H        1.86430925       2.28799904       0.94885965
H        5.19803802       2.16021925      -0.43555983
H        5.14661796       0.47782980      -0.94230963
H        5.20661779       1.52152935       1.78891935
H        6.44931743       0.82590966       1.01637958
