16
Properties=species:S:1:pos:R:3 atomization_energy=-1565.37 smiles=C.C.C.C.C.N.O.H.H.H.H.H.H.H.H.H pbc="F F F"
C        1.29648948      -0.00733000       1.43979938
C        1.65956930       0.40843984       0.02527999
C        2.59926907       1.60809941       0.03664999
C        2.02289918       2.99424874       0.02486999
C        0.72065971       3.29301879       0.11019996
N        3.87078848       1.33149943       0.06538997
O        4.67090793       2.47920910       0.08390997
H        0.63382975      -0.87809966       1.42235950
H        0.78660970       0.79971970       1.97532919
H        2.19174905      -0.27067990       2.01303921
H        0.76137973       0.62547973      -0.55977980
H        2.16363909      -0.42381984      -0.48086982
H        2.74342895       3.80178850      -0.05418998
H       -0.06011997       2.54863906       0.20436991
H        0.40321983       4.33191805       0.09599996
H        5.57045776       2.10285918       0.10960996
