18
Properties=species:S:1:pos:R:3 atomization_energy=-1713.11 smiles=C.C.O.C.C.N.C.H.H.H.H.H.H.H.H.H.H.H pbc="F F F"
C        3.27879866      -1.30154948      -0.31450987
C        2.53676889      -0.02888999       0.05818998
O        1.97993916      -0.18813992       1.36099948
C        3.44981869       1.16386960       0.08025996
C        3.42538874       2.18377916      -1.03519958
N        2.84162895       2.48669905       0.26911990
C        3.66301867       3.38691857       1.07492951
H        3.72989857      -1.22037956      -1.30807943
H        2.59810885      -2.15928915      -0.30431989
H        4.07346852      -1.52011944       0.40745984
H        1.70439936       0.12086995      -0.63978975
H        1.63779930       0.69589971       1.59485933
H        4.38189831       0.96543964       0.59685975
H        2.71856902       2.05495913      -1.84616928
H        4.35409847       2.66651888      -1.31466944
H        3.44437868       3.22976868       2.13625913
H        3.41206867       4.42519835       0.83431967
H        4.74364797       3.26208878       0.93314963
