16
Properties=species:S:1:pos:R:3 atomization_energy=-1519.2 smiles=C.C.O.N.C.C.O.H.H.H.H.H.H.H.H.H pbc="F F F"
C        0.62277979       0.79721966       0.68875974
C        1.30348952      -0.41962985       0.09465996
O        2.66980903      -0.42320982       0.51577979
N        3.30795882      -1.53891938      -0.06692997
C        3.86080853      -2.46473891       0.77236970
C        3.33798876      -2.50345889       2.18299920
O        4.71435837      -3.25225871       0.36771985
H       -0.43144983       0.83405965       0.40029985
H        1.11336953       1.71617932       0.35101987
H        0.69075972       0.78287968       1.78155935
H        1.25526953      -0.37658986      -0.99940961
H        0.80707969      -1.33256944       0.44211982
H        3.82147841      -1.36554951      -0.92439966
H        2.25343899      -2.64048890       2.17887914
H        3.59961868      -1.58034940       2.70653888
H        3.79096853      -3.34544868       2.71466899
