13
Properties=species:S:1:pos:R:3 atomization_energy=-1313.78 smiles=C.C.C.N.O.N.C.H.H.H.H.H.H pbc="F F F"
C        0.95408965       0.01857000      -0.00139000
C        2.43222906       0.03398999      -0.00178000
C        3.27866871       1.12389957      -0.04490998
N        4.53777796       0.61201975      -0.05065998
O        5.71014784       1.32770942      -0.15923993
N        4.59711820      -0.71398971       0.00991000
C        3.31074859      -1.07679954       0.02476999
H        0.54603979       1.03469959       0.01027000
H        0.57498976      -0.50922981       0.87911964
H        0.57807974      -0.48716981      -0.89635967
H        3.09200868       2.18536910      -0.08458997
H        5.44300777       2.13982911       0.29168989
H        3.06418891      -2.13122916       0.04958998
