11
Properties=species:S:1:pos:R:3 atomization_energy=-1178.37 smiles=C.C.C.C.N.N.O.H.H.H.H pbc="F F F"
C        2.77448891      -1.10087951       0.42618983
C        2.20359903       0.07830997       0.15225994
C        2.96400886       1.27482949       0.09747997
C        2.56576907       2.56776904      -0.16491994
N        3.63569851       3.40749871      -0.11403995
N        4.71700835       2.69775901       0.17369993
O        4.32141854       1.37012946       0.30912989
H        2.17687917      -2.00667921       0.46400980
H        3.83868841      -1.20486951       0.61923977
H        1.13450959       0.12992995      -0.03365999
H        1.57356938       2.93070895      -0.38522984
