13
Properties=species:S:1:pos:R:3 atomization_energy=-1350.11 smiles=C.C.C.O.N.C.N.H.H.H.H.H.H pbc="F F F"
C        0.91390962       0.08029997      -0.17556993
C        2.24056909       0.06384998       0.00527000
C        3.02412880       1.32849947      -0.04766998
O        2.49580897       2.41630898      -0.23801991
N        4.37280833       1.12529950       0.13678994
C        5.26962793       2.14578918       0.12574995
N        6.52187731       1.92621922       0.29763989
H        0.33282988      -0.83498968      -0.13852994
H        0.37614986       1.00639962      -0.36494985
H        2.75607882      -0.86950967       0.19292992
H        4.71906838       0.19245992       0.28397987
H        4.86557797       3.15746871      -0.03681998
H        6.72078751       0.93531961       0.43330983
