17
Properties=species:S:1:pos:R:3 atomization_energy=-1574.14 smiles=C.C.O.C.C.N.N.H.H.H.H.H.H.H.H.H.H pbc="F F F"
C        0.76153971       2.10690922       0.19306992
C        2.18475921       2.09605923       0.71549972
O        3.03417890       1.57754940      -0.30737987
C        4.40021806       1.54818940       0.08938997
C        5.03224781       2.91295896      -0.05619998
N        5.46927797       3.55788864       0.98039960
N        5.99522766       4.76388796       0.66853974
H        0.07066997       2.48178894       0.95300961
H        0.45127982       1.09997957      -0.10268996
H        0.68433972       2.73971892      -0.69717972
H        2.24862905       1.46036942       1.60568939
H        2.48777903       3.11534882       0.97918961
H        4.92646802       0.87312967      -0.59351977
H        4.51020825       1.16598955       1.10939960
H        5.08864788       3.32088878      -1.08161957
H        6.41803744       5.17608773       1.50447945
H        5.26624770       5.42539807       0.38745985
