18
Properties=species:S:1:pos:R:3 atomization_energy=-1714.08 smiles=C.C.C.N.C.O.C.H.H.H.H.H.H.H.H.H.H.H pbc="F F F"
C        0.86523965      -0.12522995       0.18752993
C        2.36872914      -0.00082000      -0.04331998
C        2.77895896      -0.02644999      -1.51537940
N        2.23334913       1.11238960      -2.25238904
C        3.06125883       1.08176958       0.80543967
O        3.74257846       0.08947997       1.60814937
C        3.18542878      -0.98347962       0.81798968
H        0.62560974      -0.18259992       1.25550950
H        0.47013981      -1.02858957      -0.28968988
H        0.32631986       0.73756969      -0.21780991
H        2.44351912      -0.95612962      -1.98928917
H        3.87123839       0.00164000      -1.60851941
H        1.22360953       1.00891959      -2.35127917
H        2.60280903       1.10364960      -3.20361883
H        2.40349913       1.70384927       1.42040948
H        3.77799845       1.72492928       0.28502989
H        3.97286833      -1.54395945       0.30366988
H        2.61009888      -1.67540940       1.44165943
