15
Properties=species:S:1:pos:R:3 atomization_energy=-1447.74 smiles=C.C.N.C.C.N.O.H.H.H.H.H.H.H.H pbc="F F F"
C        1.10311959       0.10961996       0.06069997
C        2.59622898       0.04195998      -0.07750997
N        3.22386867      -1.10083952       0.01022000
C        4.66173821      -0.73559974      -0.08973996
C        4.74572819       0.77722967      -0.31453987
N        3.34822862       1.17908958      -0.29978988
O        3.08130883       2.18409912       0.63738976
H        0.66791976      -0.88930966      -0.02729999
H        0.69053975       0.75066972      -0.72316971
H        0.84613969       0.52660978       1.03816958
H        5.16986776      -1.01642960       0.83950969
H        5.12933781      -1.28421949      -0.91222966
H        5.19213801       1.00489958      -1.28919950
H        5.33937784       1.26563946       0.46430983
H        3.03661869       2.98984884       0.08862997
