18
Properties=species:S:1:pos:R:3 atomization_energy=-1720.75 smiles=C.N.C.C.O.C.C.H.H.H.H.H.H.H.H.H.H.H pbc="F F F"
C        1.00348962       0.03646998       0.16389994
N        2.45527902       0.01301000      -0.00255000
C        2.92387885      -1.27204956      -0.56387980
C        2.64037888      -1.44424949      -2.06556916
O        3.17639885      -0.35529985      -2.82877899
C        2.64334907       0.89393962      -2.36983915
C        2.92670875       1.11077960      -0.87388963
H        0.68980975       0.98081961       0.62174977
H        0.68744970      -0.75976973       0.84635966
H        0.45542981      -0.08397997      -0.77533971
H        2.50346899      -2.11309916      -0.00105000
H        4.00988835      -1.31477946      -0.41177985
H        3.11657868      -2.36156899      -2.42594904
H        1.56674938      -1.53115944      -2.26860915
H        3.12224882       1.68710937      -2.95238875
H        1.57036932       0.92886965      -2.58875897
H        4.01285830       1.18871956      -0.73698971
H        2.50822896       2.06898913      -0.54489976
