18
Properties=species:S:1:pos:R:3 atomization_energy=-1764.8 smiles=C.C.C.N.C.C.C.H.H.H.H.H.H.H.H.H.H.H pbc="F F F"
C        1.56747937       1.44275948      -0.61932978
C        0.20599993       1.13652950      -0.06625997
C        1.18507955       0.02096999      -0.31589987
N        1.76318926      -0.66783971       0.83969969
C        3.12797875      -1.11009957       0.53866976
C        4.28270841      -0.35776986       1.13957956
C        3.94450857      -1.73183937       1.63823936
H        1.64191936       1.73260936      -1.66017931
H        2.28052902       1.93342921       0.03252999
H       -0.64469974       1.22192951      -0.73091969
H        0.00354000       1.42676949       0.95772959
H        0.97362962      -0.61780974      -1.17068948
H        1.18041950      -1.46161947       1.10654952
H        3.27632859      -1.53772939      -0.45127982
H        4.06473836       0.48320981       1.78771926
H        5.17459796      -0.23628991       0.53749977
H        4.61068807      -2.54481901       1.37521948
H        3.50640852      -1.81668929       2.62586908
