16
Properties=species:S:1:pos:R:3 atomization_energy=-1550.5 smiles=C.C.C.C.O.N.C.H.H.H.H.H.H.H.H.H pbc="F F F"
C        0.64928977       0.19139993       0.03295999
C        2.06380915      -0.31343986       0.01685999
C        2.35117900      -1.61730937       0.16268993
C        3.13519871       0.72813969      -0.18951992
O        3.17159875       1.58446934       0.95491963
N        4.15207828       2.57020909       0.75413972
C        4.36642839       3.16595865       1.87469923
H        0.51768981       0.95223962       0.80796967
H       -0.06972997      -0.61081979       0.23276991
H        0.39448983       0.63328976      -0.93644962
H        1.57181934      -2.35956901       0.30679989
H        3.37617859      -1.97805917       0.15060993
H        2.91702881       1.31749946      -1.08880962
H        4.12184849       0.26369990      -0.31354988
H        5.10612788       3.97982839       1.93294928
H        3.84579860       2.89556880       2.80924880
