14
Properties=species:S:1:pos:R:3 atomization_energy=-1329.86 smiles=C.C.N.N.C.C.H.H.H.H.H.H.H.H pbc="F F F"
C        0.99005960       0.28808987      -0.50101980
C        2.29186904       0.01024999       0.18241993
N        3.26296866       0.86376963       0.12054995
N        4.34566808       0.43242982       0.79654966
C        5.51877779       0.95485964       0.09292997
C        5.01077795       1.62182938       1.33241943
H        0.79534970      -0.50656979      -1.22441951
H        1.01329962       1.25351948      -1.01175958
H        0.19270992       0.28569989       0.24569990
H        2.37134910      -0.94665963       0.73032974
H        5.36921803       1.44450939      -0.86189967
H        6.41225755       0.34908985       0.16731994
H        5.55674759       1.47224943       2.25450913
H        4.50686839       2.57671898       1.24205948
