16
Properties=species:S:1:pos:R:3 atomization_energy=-1572.15 smiles=C.C.C.C.N.C.O.H.H.H.H.H.H.H.H.H pbc="F F F"
C        0.99999962       0.00000000       0.00000000
C        2.44399905       0.00000000       0.00000000
C        3.63415853       0.00000000       0.00000000
C        5.07815797       0.00000000       0.00000000
N        5.58378792      -0.70050973      -1.19446955
C        5.65159790       1.43089940       0.02168999
O        7.07494705       1.39445949      -0.12538996
H        0.60600979       1.02087959       0.01162999
H        0.60592973      -0.52051980       0.87824966
H        0.60600979      -0.50031980      -0.88994963
H        5.46444785      -0.53941976       0.87231962
H        5.16706789      -0.26659990      -2.01988925
H        5.21486801      -1.65238934      -1.17756954
H        5.41771812       1.93501927       0.96543964
H        5.24705791       2.03938916      -0.79528970
H        7.23830731       0.64380977      -0.73428970
