17
Properties=species:S:1:pos:R:3 atomization_energy=-1628.37 smiles=C.C.N.C.O.C.N.H.H.H.H.H.H.H.H.H.H pbc="F F F"
C        2.63803901      -0.66686975      -1.44457941
C        2.56840896      -0.12002995      -0.03034999
N        3.18905882       1.17889958       0.06767998
C        4.54098812       1.35635949       0.26052989
O        5.33366809       0.44029981       0.45649983
C        4.96652813       2.82894880       0.25947989
N        4.03079829       3.65229863      -0.53929978
H        2.14894912      -1.64404929      -1.50052945
H        3.67597866      -0.78322966      -1.77319924
H        2.13969916       0.00779000      -2.14868922
H        3.06383867      -0.80909967       0.66169974
H        1.52544944      -0.00754000       0.28130990
H        2.67178882       2.02321914      -0.16850994
H        5.97201773       2.90699890      -0.16475993
H        4.97792795       3.18306872       1.29446944
H        4.13677843       3.38129864      -1.51904943
H        4.34643820       4.62177803      -0.49188982
