16
Properties=species:S:1:pos:R:3 atomization_energy=-1632.17 smiles=C.C.C.C.C.C.H.H.H.H.H.H.H.H.H.H pbc="F F F"
C        0.41534983       1.37338945       0.32358989
C        1.38637946       0.38263985      -0.31301989
C        1.05056958      -1.05854956       0.07993997
C       -0.42106984      -1.35120953       0.04207998
C       -1.35658948      -0.39417984      -0.04278998
C       -1.03172958       1.07074952      -0.07383997
H        0.67275973       2.39667912       0.02735999
H        0.51331981       1.32471942       1.41581946
H        2.41420908       0.61647976      -0.01330000
H        1.34266950       0.48432982      -1.40495950
H        1.41723945      -1.26110948       1.09335953
H        1.57609939      -1.74368935      -0.59509974
H       -0.72168972      -2.39548912       0.08232997
H       -2.40681905      -0.67189972      -0.08810997
H       -1.22383952       1.44572941      -1.08611952
H       -1.70669936       1.60813940       0.60159979
