15
Properties=species:S:1:pos:R:3 atomization_energy=-1482.27 smiles=C.C.C.O.C.N.N.H.H.H.H.H.H.H.H pbc="F F F"
C        1.08315955      -0.10540996      -0.18472993
C        2.57527893       0.20115991      -0.25838991
C        3.27069883      -0.90527964      -1.01995959
O        4.06413832      -0.73009974      -1.94289920
C        2.77294893       1.60383942      -0.81034966
N        3.04483889       1.81043930      -2.12720927
N        2.65587883       2.64568894      -0.04885998
H        0.56090980       0.62918975       0.43713984
H        0.90421966      -1.09769951       0.24268990
H        0.62504975      -0.08442997      -1.17979952
H        2.99117888       0.17864993       0.75656973
H        3.06662870      -1.92823926      -0.65782973
H        3.61137858       1.08360958      -2.57037891
H        3.39954875       2.74500904      -2.30183916
H        2.42699899       2.37826903       0.91317963
