16
Properties=species:S:1:pos:R:3 atomization_energy=-1564.68 smiles=C.C.C.O.C.N.O.H.H.H.H.H.H.H.H.H pbc="F F F"
C        0.81031969      -0.23717990       0.17857992
C        2.28629908       0.05220998      -0.08398996
C        3.16218882      -0.63415974       0.96275963
O        2.64519891      -0.48492980      -1.36415942
C        2.56384908       1.57302940      -0.07976997
N        3.79114845       1.92533922      -0.57379977
O        1.78429929       2.42442900       0.33145988
H        0.17770993       0.25340990      -0.57041979
H        0.49747981       0.11607995       1.16690955
H        0.60315977      -1.31086946       0.10838995
H        2.97207892      -0.23969990       1.96677920
H        4.22747839      -0.49899979       0.74257973
H        2.98434877      -1.71566935       0.97235963
H        2.01481916      -0.11857995      -2.01029915
H        4.33256805       1.24902950      -1.09881960
H        4.00333834       2.90884874      -0.66639972
