16
Properties=species:S:1:pos:R:3 atomization_energy=-1508.09 smiles=C.C.C.C.O.N.O.H.H.H.H.H.H.H.H.H pbc="F F F"
C        2.09726916      -0.35475986       1.43213948
C        2.28184922       0.14481994       0.01137999
C        2.97934883       1.48749944       0.01297000
C        2.12334911       2.73164886       0.21915991
O        2.22811906       3.59630859      -0.89984966
N        4.27318845       1.51094935      -0.13187995
O        4.77778788       2.81590883      -0.09156996
H        1.59981941      -1.33003944       1.43327939
H        1.48943937       0.34075986       2.02107925
H        3.06252882      -0.46198983       1.93897924
H        1.31366945       0.24184991      -0.48925980
H        2.88162875      -0.57140974      -0.56035978
H        2.45293915       3.26048875       1.11943961
H        1.07324962       2.45587906       0.34454988
H        3.18994879       3.72510856      -1.02023961
H        5.74120780       2.66654891      -0.16207994
