14
Properties=species:S:1:pos:R:3 atomization_energy=-1414.88 smiles=C.C.N.C.C.O.O.H.H.H.H.H.H.H pbc="F F F"
C        0.93744960      -0.01258000      -0.39882983
C        2.24801917       0.54587982       0.03597998
N        3.45721856      -0.27250990      -0.03983998
C        3.31523857       0.87279969      -0.97613962
C        4.25637814       1.99649916      -0.73003968
O        5.14278807       1.73595931       0.26075989
O        4.21674826       3.03220870      -1.37138947
H        0.24631991       0.80044969      -0.64240977
H        0.49335981      -0.60571973       0.40684984
H        1.03051959      -0.65344977      -1.28211947
H        2.15256907       1.18453956       0.90820965
H        3.26890879      -1.15080956      -0.53469977
H        3.15341879       0.62080977      -2.01737919
H        4.92395783       0.83846964       0.60546973
