18
Properties=species:S:1:pos:R:3 atomization_energy=-1631.67 smiles=C.N.C.C.C.N.H.H.H.H.H.H.H.H.H.H.H.H pbc="F F F"
C        1.30048944      -0.25492991       0.18261992
N        2.74914904      -0.14203994       0.07113997
C        3.16015881       1.27329948       0.03137999
C        4.69944811       1.43272943      -0.06599997
C        5.38108770       1.10716963       1.26421946
N        5.25847792       0.56974978      -1.12405954
H        1.01807960      -1.31180952       0.18786993
H        0.79279970       0.22513992      -0.65982971
H        0.94179961       0.18719993       1.11710959
H        3.04398878      -0.55866979      -0.81444966
H        2.79786891       1.79827933       0.92323963
H        2.70516897       1.75330935      -0.84470967
H        4.91899800       2.47499896      -0.32363988
H        5.21687808       0.06653998       1.56532938
H        4.99717780       1.75264926       2.06145919
H        6.46314721       1.27135956       1.19976952
H        5.12784805      -0.40001983      -0.82863970
H        6.26878754       0.70340971      -1.15959952
