12
Properties=species:S:1:pos:R:3 atomization_energy=-1281.55 smiles=C.C.N.C.O.C.O.H.H.H.H.H pbc="F F F"
C        1.29012947      -0.36742986       0.49475980
C        2.50564913      -0.21357991      -0.03403999
N        3.22913861       0.93335963       0.13778994
C        4.48156815       1.14421955      -0.40077985
O        5.13587773       0.37932986      -1.09203959
C        5.05545825       2.50699910      -0.06494997
O        4.44285801       3.28309864       0.65381975
H        0.73917969      -1.29004948       0.33917986
H        0.81030966       0.40471985       1.08631962
H        2.96768886      -1.00164962      -0.62783978
H        2.84313890       1.69726936       0.68961975
H        6.03534782       2.71469901      -0.52169979
