17
Properties=species:S:1:pos:R:3 atomization_energy=-1571.21 smiles=C.C.C.N.C.N.O.H.H.H.H.H.H.H.H.H.H pbc="F F F"
C        1.98428922      -1.17280957      -1.45116942
C        2.29919901      -0.58465978      -0.08246997
C        3.23334876       0.62107977      -0.16160994
N        4.55736845       0.17524992      -0.60945979
C        5.38246795       1.15011956      -0.77973967
N        6.67809761       0.99823961      -1.20277958
O        7.16331699      -0.30030987      -1.00069959
H        1.28658952      -2.00962921      -1.34941949
H        2.88776899      -1.54600939      -1.94215924
H        1.52276942      -0.42378984      -2.10148914
H        2.74230885      -1.36261945       0.55153979
H        1.36020943      -0.27581989       0.39182985
H        3.31312858       1.07070953       0.83513969
H        2.81789896       1.36984950      -0.84646968
H        5.11889785       2.21016923      -0.60923975
H        7.34054689       1.72641930      -0.94697965
H        6.34299766      -0.84439968      -1.01584962
