13
Properties=species:S:1:pos:R:3 atomization_energy=-1389.73 smiles=C.C.C.N.C.C.N.H.H.H.H.H.H pbc="F F F"
C        2.26380905       0.61488976      -0.77605967
C        2.44585898       0.02308999       0.63227974
C        3.24486869       1.24234954       0.87344963
N        3.20915876       2.26519914       1.67898935
C        3.30325864       3.34272880       0.81674966
C        3.24341879       2.93526883      -0.50707982
N        3.27111871       1.57656935      -0.43703982
H        1.29277945       1.06268956      -1.01801961
H        2.56364898      -0.03868998      -1.60197936
H        3.03588870      -0.89986966       0.63697973
H        1.56891943      -0.09926996       1.27049949
H        3.32714861       4.35683829       1.19523954
H        3.19393865       3.47595870      -1.44034946
