18
Properties=species:S:1:pos:R:3 atomization_energy=-1710.3 smiles=C.C.C.C.C.N.O.H.H.H.H.H.H.H.H.H.H.H pbc="F F F"
C        0.95175963      -0.10294996      -0.20028992
C        2.46069909       0.03258999      -0.03190999
C        3.22571876      -0.82962966      -1.02949960
C        2.89155875       1.49383940      -0.12824995
C        2.68642883       2.24165916      -1.42708945
N        3.42934857       2.03207925       0.92723965
O        3.78207840       3.36649866       0.69830972
H        0.42194984       0.55383979       0.49815981
H        0.63279973      -1.13243959      -0.00594000
H        0.62770977       0.16161994      -1.21210953
H        2.71647896      -0.31826986       0.97665961
H        2.96353876      -0.58740975      -2.06470922
H        3.00740883      -1.89084919      -0.86942968
H        4.30617824      -0.68533970      -0.92028963
H        2.17688926       1.62411941      -2.16899911
H        3.65838864       2.53844891      -1.83173933
H        2.07889919       3.13298879      -1.24616945
H        4.16191844       3.63155851       1.55672943
