14
Properties=species:S:1:pos:R:3 atomization_energy=-1438.99 smiles=C.C.C.O.N.C.O.H.H.H.H.H.H.H pbc="F F F"
C        1.11800953      -0.81246968       0.69886971
C        2.35109901      -0.03798999       0.26942989
C        2.05267920       1.42507938       0.00523000
O        0.94712960       1.93157924       0.15487993
N        3.16377876       2.12272913      -0.41326984
C        3.15252882       3.45015858      -0.73309970
O        4.15172830       4.03895843      -1.12632952
H        1.37000947      -1.86235923       0.87827963
H        0.34155988      -0.77374970      -0.07232998
H        0.69535972      -0.39969984       1.62097940
H        2.76008886      -0.48157982      -0.64535977
H        3.11398875      -0.10064996       1.05406960
H        4.05375841       1.65909934      -0.52639978
H        2.17373915       3.94303849      -0.61058979
