15
Properties=species:S:1:pos:R:3 atomization_energy=-1449.28 smiles=C.C.C.O.N.C.N.H.H.H.H.H.H.H.H pbc="F F F"
C        0.94163963      -0.00480000       0.29092989
C        2.43762895      -0.04419999       0.02419999
C        2.91056888       1.19754951      -0.73285974
O        4.31451829       1.06452955      -0.99399963
N        4.63790805      -0.07792997      -1.77943927
C        3.87866853      -1.10752958      -1.58207938
N        2.76353899      -1.19782947      -0.79524971
H        0.67498971       0.87091963       0.89162965
H        0.62038977      -0.90009966       0.83459970
H        0.36979985       0.03470998      -0.64321975
H        2.98424885      -0.12847995       0.97097963
H        2.76605902       2.09865912      -0.12833995
H        2.38362905       1.33700946      -1.68480937
H        4.10133850      -2.04950916      -2.11063918
H        2.51437903      -2.11229914      -0.43682981
