12
Properties=species:S:1:pos:R:3 atomization_energy=-1282.94 smiles=C.C.N.C.O.C.O.H.H.H.H.H pbc="F F F"
C        0.78466971       0.19548992      -0.04394998
C        2.10250919      -0.03751999      -0.06124997
N        2.70680887      -1.26927946      -0.11862995
C        2.14355908      -2.50978913      -0.17011993
O        2.80102885      -3.54107858      -0.21903992
C        3.02589890       1.13884956      -0.01458000
O        4.24484812       1.00093962      -0.02722999
H        0.38335984       1.20408956       0.00253000
H        0.04596998      -0.59686978      -0.07479997
H        3.72650849      -1.26481951      -0.12391995
H        1.04412958      -2.52329894      -0.16482994
H        2.54830901       2.13172928       0.03160999
