17
Properties=species:S:1:pos:R:3 atomization_energy=-1609.71 smiles=C.N.C.C.C.C.H.H.H.H.H.H.H.H.H.H.H pbc="F F F"
C        1.19806957       0.15341994       0.16191994
N        2.61949898      -0.01851999      -0.14249995
C        2.78303890      -0.74513969      -1.40263943
C        3.33049881       1.27249946      -0.16371993
C        3.81044851       1.86439933       1.13355957
C        4.80032813       1.30325953       0.15595994
H        1.07027955       0.64950974       1.13005961
H        0.69813971      -0.81824970       0.23674991
H        0.68500972       0.75188968      -0.59912979
H        2.30302915      -1.72814928      -1.34755943
H        3.84412842      -0.92311965      -1.60807935
H        2.35806915      -0.19657993      -2.25066915
H        2.98611888       1.97865921      -0.91777963
H        3.63604850       1.31011953       2.04834919
H        3.75990857       2.94002881       1.24720956
H        5.42252806       1.99753927      -0.39475986
H        5.29093781       0.37202986       0.41401983
