14
Properties=species:S:1:pos:R:3 atomization_energy=-1460.27 smiles=C.C.C.C.O.C.N.H.H.H.H.H.H.H pbc="F F F"
C        0.89634964       0.29632988       0.18425993
C        2.37218911       0.04197999       0.05821998
C        2.93857891      -1.17320951      -0.08955996
C        2.26947918      -2.50673895      -0.11811995
O        2.52372891      -3.10237874      -1.37869950
C        3.22563877       1.19242958       0.08618996
N        3.91186851       2.12736925       0.10828996
H        0.59508977       1.12675962      -0.46449983
H        0.64556978       0.56150978       1.21667950
H        0.28490990      -0.56155981      -0.10487996
H        4.02501839      -1.23505956      -0.18097993
H        1.19031959      -2.47202901       0.04185999
H        2.69828890      -3.15040873       0.65612971
H        2.16182912      -2.50936900      -2.05885917
