18
Properties=species:S:1:pos:R:3 atomization_energy=-1718.88 smiles=C.C.C.O.C.C.N.H.H.H.H.H.H.H.H.H.H.H pbc="F F F"
C        0.86496966      -0.03736999      -0.23364991
C        2.31174921       0.18402993       0.08459997
C        2.70480889       0.04433998       1.52185939
O        3.21044869      -0.45869981      -0.83331969
C        3.15743868       0.97589959      -0.89905967
C        4.42725839       1.66857929      -0.53048981
N        5.23665782       1.82895927      -1.73381929
H        0.66620972       0.03637999      -1.30808952
H        0.24767991       0.70971970       0.27505990
H        0.54594977      -1.03091960       0.09743996
H        3.78214854      -0.09405996       1.65254932
H        2.21228906      -0.82352967       1.97310919
H        2.40366894       0.93528965       2.08181916
H        2.65871907       1.43684949      -1.74399934
H        5.00342805       1.10936958       0.21267992
H        4.19956828       2.65359902      -0.11152996
H        5.42864810       0.90082965      -2.11399922
H        6.14217781       2.21718908      -1.47574939
