16
Properties=species:S:1:pos:R:3 atomization_energy=-1591.14 smiles=C.C.C.O.C.C.N.H.H.H.H.H.H.H.H.H pbc="F F F"
C        1.21762952      -0.92181964       1.05827956
C        1.98724920      -1.14181950      -0.24027990
C        2.94472873      -2.31937920      -0.09280996
O        1.10184960      -1.45781949      -1.31775949
C        0.36959984      -0.33306988      -1.81434930
C       -0.36120986      -0.69195974      -3.04219874
N       -0.94858965      -0.94068960      -4.01244851
H        0.59725976      -0.02212999       1.00053961
H        1.89818926      -0.80349968       1.90737929
H        0.54270978      -1.76062936       1.26043954
H        2.57195900      -0.24822990      -0.48980982
H        2.39949917      -3.24501882       0.12316995
H        3.67171855      -2.14515911       0.70632969
H        3.48965852      -2.48664909      -1.02834961
H        1.06098960       0.48849981      -2.03242923
H       -0.34437987       0.00165000      -1.05544961
