17
Properties=species:S:1:pos:R:3 atomization_energy=-1609.73 smiles=C.N.C.C.C.C.H.H.H.H.H.H.H.H.H.H.H pbc="F F F"
C        2.17224914      -0.44507982      -1.31959949
N        2.31673906       0.15201995       0.00319000
C        3.21227884       1.30513952      -0.07530997
C        2.41576899       2.56741906      -0.48451982
C        3.17932867       3.30845868       0.63615978
C        3.32845871       1.93801924       1.33290946
H        1.48343943      -1.29399948      -1.26172946
H        3.13091866      -0.81484967      -1.69862930
H        1.75452925       0.26623988      -2.03985925
H        2.64229887      -0.56641977       0.64992975
H        4.17191833       1.15775952      -0.58381977
H        1.33300951       2.52841900      -0.31372989
H        2.60019891       2.93571874      -1.49741947
H        4.13033843       3.74476844       0.30950986
H        2.60854906       4.06217846       1.18361956
H        4.27951843       1.77580936       1.84761930
H        2.50874902       1.71914938       2.02883919
