17
Properties=species:S:1:pos:R:3 atomization_energy=-1613.15 smiles=C.C.N.C.N.O.C.H.H.H.H.H.H.H.H.H.H pbc="F F F"
C        1.71522929      -0.53849975      -0.95962965
C        2.74524901      -0.36523984       0.14333994
N        3.78020862       0.55139981      -0.28410989
C        4.78130791       0.97307960       0.52477978
N        5.31183791       0.34677985       1.50912941
O        5.18262815       2.21186918       0.16442993
C        6.22967771       2.79187882       0.95001961
H        0.93009964      -1.23164956      -0.64265976
H        2.17673912      -0.93424960      -1.87030930
H        1.24463957       0.41796982      -1.21121956
H        3.18120879      -1.34070952       0.38449984
H        2.25374911       0.02033999       1.04344961
H        3.45820871       1.30821948      -0.87891967
H        4.87875824      -0.57389975       1.57851937
H        6.44645751       3.78220860       0.53992978
H        7.13932735       2.18663908       0.88825964
H        5.90692786       2.91325873       1.98875927
