15
Properties=species:S:1:pos:R:3 atomization_energy=-1471.89 smiles=C.C.C.N.N.C.O.H.H.H.H.H.H.H.H pbc="F F F"
C        2.42124911      -0.95214960      -1.45746938
C        3.20705861      -0.44061983      -0.26564990
C        2.70739882       0.92010965       0.13418995
N        3.48467851       1.95207927       0.06269998
N        2.91518882       3.12242873       0.45198981
C        3.63942848       4.28493851       0.43763983
O        3.18412877       5.36977770       0.77802968
H        2.77048895      -1.94797926      -1.74689926
H        2.53408888      -0.28387989      -2.31766916
H        1.35277941      -1.01732961      -1.22585956
H        4.27383846      -0.39098983      -0.50596981
H        3.07355872      -1.11338959       0.58739979
H        1.66157937       0.98418962       0.48485981
H        1.95145929       3.17146880       0.76374969
H        4.67669793       4.14884844       0.08970997
