16
Properties=species:S:1:pos:R:3 atomization_energy=-1564.61 smiles=C.C.O.C.O.N.C.H.H.H.H.H.H.H.H.H pbc="F F F"
C        4.28903839       4.08367834      -2.18336913
C        3.11381868       3.67462843      -1.31470944
O        3.45290874       3.80397848       0.07329997
C        4.08830837       2.74056902       0.62293976
O        4.39139808       1.71201938       0.03856999
N        4.35538839       3.01420890       1.92914929
C        5.15290807       2.14171907       2.74508903
H        4.02005832       4.04632852      -3.24276878
H        5.14837822       3.42601856      -2.01845917
H        4.61424796       5.09970807      -1.93652923
H        2.77444878       2.65898907      -1.54906941
H        2.26907899       4.34598804      -1.50104938
H        4.14549849       3.95478855       2.23207915
H        4.90062829       1.09714955       2.54386899
H        4.96535782       2.37693899       3.79505857
H        6.20701736       2.31149915       2.51037908
