17
Properties=species:S:1:pos:R:3 atomization_energy=-1575.03 smiles=C.C.C.N.O.C.N.H.H.H.H.H.H.H.H.H.H pbc="F F F"
C        0.95248962      -0.13994995       0.00883000
C        2.46515905      -0.00172000      -0.14552994
C        2.99655883      -0.91973961      -1.24454949
N        2.83801885       1.38758951      -0.42510982
O        2.32162899       1.89736931      -1.62356933
C        2.95748887       2.32939903       0.56480977
N        2.83268886       3.60501857       0.43353983
H        0.57933976       0.51050978       0.80712966
H        0.68124973      -1.17103959       0.25988990
H        0.42543983       0.13122995      -0.91291966
H        2.93748884      -0.31043987       0.79554967
H        2.54762898      -0.69123972      -2.21716915
H        2.78005887      -1.96793917      -1.01210963
H        4.08223829      -0.81317968      -1.34691952
H        3.12921871       2.13905925      -2.11647914
H        3.20142885       1.90150930       1.55179938
H        2.57046899       3.77106843      -0.54454978
