14
Properties=species:S:1:pos:R:3 atomization_energy=-1423.95 smiles=C.C.C.N.C.O.O.H.H.H.H.H.H.H pbc="F F F"
C        0.97643964       0.10937995      -0.12565995
C        2.44713906      -0.10124996       0.04637998
C        3.09577876      -1.27656944       0.01107000
N        2.59223887      -2.52975913      -0.23164990
C        3.22240868       1.13218953       0.32166987
O        4.31686851       1.25092956      -0.45921983
O        2.87001900       1.98157919       1.12103952
H        0.78802970       0.86167964      -0.89916963
H        0.52700979       0.45717983       0.81037968
H        0.45346983      -0.80243970      -0.42736982
H        4.17013838      -1.31696944       0.19762992
H        1.58567939      -2.61930897      -0.10996996
H        3.09880875      -3.27982867       0.23714991
H        4.37486836       0.56512979      -1.15182961
