18
Properties=species:S:1:pos:R:3 atomization_energy=-1786.95 smiles=C.C.N.C.C.C.C.H.H.H.H.H.H.H.H.H.H.H pbc="F F F"
C        0.81939971      -1.23220948       0.51582981
C        1.68256929      -0.09166997      -0.02421999
N        0.98009964       1.09736959      -0.49305982
C       -0.11222996       1.53355936       0.36378985
C       -1.38681940       0.77253971       0.13843995
C       -1.52098936      -0.51834978      -0.21030992
C       -0.41891985      -1.53396940      -0.32650987
H        1.44102949      -2.13494928       0.56455977
H        0.52118980      -1.01471962       1.54954934
H        2.27555910      -0.47101982      -0.86540966
H        2.40290918       0.19524992       0.75165967
H        1.64884939       1.85683923      -0.60533978
H        0.16250994       1.53346940       1.42504948
H       -0.32087988       2.57781889       0.10523995
H       -2.29387911       1.36634941       0.23139991
H       -2.52422903      -0.89500963      -0.40091983
H       -0.82642965      -2.49249914       0.02252999
H       -0.15390994      -1.67253938      -1.38080950
