14
Properties=species:S:1:pos:R:3 atomization_energy=-1361.99 smiles=C.C.C.N.C.N.H.H.H.H.H.H.H.H pbc="F F F"
C        1.03487962      -0.23255990      -0.83977968
C        2.17463922      -0.18372993      -0.13763995
C        3.08525882       1.00077958      -0.06314997
N        4.35494832       0.60119978      -0.62085973
C        5.50597804       1.27131956      -0.37628984
N        6.60185723       1.12207950      -1.02604961
H        0.42138983      -1.12926955      -0.83784966
H        0.68476975       0.61196979      -1.42618938
H        2.47405902      -1.05595956       0.44127984
H        3.19709885       1.30257949       0.98591960
H        2.68651891       1.85467927      -0.62165975
H        4.29894844       0.07256997      -1.48253937
H        5.45079774       1.98567919       0.46298982
H        6.47894768       0.40957984      -1.74824936
