14
Properties=species:S:1:pos:R:3 atomization_energy=-1384.44 smiles=C.C.O.N.O.C.C.H.H.H.H.H.H.H pbc="F F F"
C        3.11369883      -1.36879942      -0.12987995
C        2.61952900       0.05143998      -0.19883991
O        1.43061944       0.30964988      -0.41204985
N        3.54917867       1.05804956      -0.01404999
O        3.01473879       2.37048915      -0.09200997
C        4.89608784       0.98049959       0.23072990
C        5.70615798       2.03374918       0.39438984
H        3.85910857      -1.54740945      -0.90957962
H        2.27499918      -2.05276915      -0.29319990
H        3.53662872      -1.57384935       0.85727967
H        2.06765922       2.18557904      -0.26775989
H        5.31962788      -0.01685999       0.29313987
H        5.33936775       3.05403888       0.34267985
H        6.76463713       1.89509921       0.58557979
