13
Properties=species:S:1:pos:R:3 atomization_energy=-1353.03 smiles=C.C.N.N.C.C.O.H.H.H.H.H.H pbc="F F F"
C        1.17969960       0.03297999       0.00636000
C        2.65185894       0.04461998      -0.00048000
N        3.48059857       1.06627960       0.00113000
N        4.75316792       0.53384980      -0.00748000
C        4.60763840      -0.77348968      -0.01359999
C        5.63301775      -1.82958922      -0.02407999
O        3.29543864      -1.16406957      -0.00979000
H        0.78733969      -0.98826962      -0.00252000
H        0.79284966       0.55541977      -0.87337967
H        0.80130970       0.53682977       0.90050963
H        5.18165819      -2.82627889      -0.01005000
H        6.28210760      -1.73625933       0.85161970
H        6.25226741      -1.74739925      -0.92220962
