10
Properties=species:S:1:pos:R:3 atomization_energy=-1167.84 smiles=C.C.C.C.O.C.N.H.H.H pbc="F F F"
C        0.99999962       0.00000000       0.00000000
C        2.44399905       0.00000000       0.00000000
C        3.63415853       0.00000000       0.00000000
C        5.08172795      -0.00745000       0.00000000
O        5.68361773      -1.07511952       0.00000000
C        5.79279793       1.25733953       0.00000000
N        6.34270748       2.28252900       0.00000000
H        0.60596979       1.02086963       0.01167999
H        0.60592973      -0.52052980       0.87824966
H        0.60592973      -0.50029980      -0.88992963
