16
Properties=species:S:1:pos:R:3 atomization_energy=-1588.76 smiles=C.C.C.O.N.C.C.H.H.H.H.H.H.H.H.H pbc="F F F"
C        1.15129959       0.05447998       0.84886966
C        2.46141899       0.54300980       0.25762990
C        2.41732915       0.62138975      -1.25481950
O        1.42838946       0.35126987      -1.92970922
N        3.64258867       1.05347959      -1.76886936
C        3.68007854       1.98096918      -2.86345889
C        4.10418833       0.57072978      -3.03971883
H        1.20877951       0.03737998       1.94166921
H        0.91808961      -0.95791960       0.50235980
H        0.32028987       0.70697970       0.56036975
H        3.27111871      -0.13410995       0.55101980
H        2.68749897       1.54146944       0.64829975
H        4.43082837       2.74952880      -2.74905896
H        2.71596900       2.29309916      -3.24330877
H        3.44156872      -0.11676995      -3.55004871
H        5.15797791       0.33225986      -3.05425891
