13
Properties=species:S:1:pos:R:3 atomization_energy=-1316.19 smiles=C.C.N.O.N.C.C.H.H.H.H.H.H pbc="F F F"
C        1.08613958       0.16992993       0.00399000
C        2.55481890       0.01342999       0.00030000
N        3.34413858       1.09022962      -0.00578000
O        4.64080835       0.58884974      -0.00765000
N        4.64036828      -0.80125967      -0.00242000
C        3.35093865      -1.14850956       0.00287000
C        2.96681882      -2.57488908       0.00935000
H        0.57270976      -0.79538969      -0.01195999
H        0.75842973       0.73659973      -0.87384964
H        0.76045973       0.70727972       0.90078966
H        1.88138930      -2.70511900       0.03378999
H        3.38349872      -3.08046882       0.88690967
H        3.34408862      -3.07718876      -0.88769966
