17
Properties=species:S:1:pos:R:3 atomization_energy=-1583.0 smiles=C.C.C.C.O.N.N.H.H.H.H.H.H.H.H.H.H pbc="F F F"
C        1.32354948       0.29790988       1.56951934
C        1.85757932       0.62910976       0.18840993
C        2.74147893       1.86133930       0.22147991
C        2.06803923       3.20774874       0.47444982
O        2.34281901       4.10996848      -0.58387977
N        4.02310850       1.70018934       0.03041999
N        4.78462808       2.81762897       0.07219997
H        0.73833974      -0.62584977       1.53911935
H        0.67638970       1.09539951       1.94726920
H        2.14080917       0.16589993       2.28629908
H        1.03180957       0.81050970      -0.50830980
H        2.43592899      -0.21907991      -0.19571992
H        2.43711898       3.62881845       1.41474944
H        0.98480959       3.08690881       0.54847977
H        3.30752859       4.00229849      -0.73655973
H        5.66223771       2.63009890      -0.42594983
H        5.10068812       2.98354889       1.03400958
