12
Properties=species:S:1:pos:R:3 atomization_energy=-1331.28 smiles=C.C.O.C.C.C.N.H.H.H.H.H pbc="F F F"
C        0.99240962      -0.07626997      -0.29768988
C        2.49783897      -0.05467998      -0.19985992
O        3.13770864      -1.10391960      -0.28197990
C        3.20399884       1.25053945       0.00000000
C        2.53262889       2.40256903       0.17524992
C        4.60999820       1.25053945       0.00000000
N        5.76100773       1.25053945       0.00000000
H        0.65611975       0.56365977      -1.11822956
H        0.54677976       0.23747991       0.65025973
H        0.65904975      -1.09733956      -0.51063980
H        1.45060937       2.46915900       0.18848992
H        3.06480889       3.34140860       0.31847986
