20
Properties=species:S:1:pos:R:3 atomization_energy=-1858.93 smiles=C.C.C.C.O.N.C.H.H.H.H.H.H.H.H.H.H.H.H.H pbc="F F F"
C        2.43439911      -0.98391962       1.55584942
C        2.24288902      -0.08073997       0.34484987
C        2.92616876       1.29694948       0.43257983
C        2.27176909       2.19118912       1.51018945
O        2.92344888       3.46231868       1.53267936
N        4.38200832       1.26502945       0.69899972
C        5.14178783       0.65433974      -0.38428985
H        1.89325921      -1.92446918       1.40635943
H        2.04909925      -0.52345980       2.47025891
H        3.48882860      -1.23370946       1.70960937
H        1.16726951       0.06918997       0.19148992
H        2.60096903      -0.61136975      -0.54492979
H        2.78250900       1.81246930      -0.52685978
H        2.36003911       1.75788930       2.51063898
H        1.21189946       2.35608911       1.29349948
H        3.85975857       3.25740879       1.32802950
H        4.56422833       0.75706972       1.56543940
H        4.95319798       1.15967951      -1.33701943
H        4.91969797      -0.41100983      -0.49130981
H        6.20995752       0.74849973      -0.17065994
