14
Properties=species:S:1:pos:R:3 atomization_energy=-1409.98 smiles=C.C.O.C.O.C.N.H.H.H.H.H.H.H pbc="F F F"
C        1.01628963       0.11275996       0.15141993
C        2.49029906      -0.17062993      -0.06311997
O        3.31530872       0.87528963       0.52667980
C        4.01338844      -0.00840000       1.29497953
O        4.96704793       0.21585991       2.00434918
C        3.12985888      -1.22586953       0.86173963
N        3.80578845      -2.26796898       0.06219997
H        0.41009983      -0.72984974      -0.19605992
H        0.70921971       1.00147961      -0.40914983
H        0.78707967       0.28313990       1.20851948
H        2.72753889      -0.27349989      -1.13031951
H        2.49609889      -1.61278936       1.66411934
H        4.52156820      -1.91890919      -0.57636976
H        3.18139879      -2.85796892      -0.48467980
