14
Properties=species:S:1:pos:R:3 atomization_energy=-1362.61 smiles=C.C.O.C.C.N.O.H.H.H.H.H.H.H pbc="F F F"
C        0.84952964       0.34815986       0.73944968
C        1.80021925       1.32329942       0.10908995
O        2.38843899       0.99006963      -1.07318956
C        2.00404916      -0.14331994      -1.79756927
C        2.89521881      -0.89229966      -2.44936891
N        2.04689917       2.45123894       0.70628969
O        2.95846892       3.22162872      -0.03009999
H        0.59469980       0.67856972       1.75164927
H        1.31068954      -0.64012976       0.81557966
H       -0.07466997       0.29500987       0.15817994
H        0.93696961      -0.30839989      -1.82813933
H        3.95354834      -0.65522977      -2.41272915
H        2.58303887      -1.74733933      -3.03801887
H        3.05577870       4.01896850       0.52172979
