13
Properties=species:S:1:pos:R:3 atomization_energy=-1309.33 smiles=O.C.C.N.N.C.C.H.H.H.H.H.H pbc="F F F"
O        1.07390959      -0.00043000       0.83347966
C        2.42310905      -0.01161000       0.34883985
C        2.67230888       0.74724968      -0.92629965
N        4.03417852       1.15370961      -1.30919953
N        4.69424807       0.00020000      -1.68875936
C        3.97574844      -1.05339960      -1.45459949
C        2.63641904      -0.74693970      -0.94134964
H        0.89987962       0.81911968       1.33534950
H        3.22474880      -0.04873998       1.08137961
H        1.84738930       1.29684943      -1.36372945
H        4.06346838       1.83909933      -2.06413920
H        4.30020809      -2.08386923      -1.64682935
H        1.79686930      -1.23321956      -1.41823944
