16
Properties=species:S:1:pos:R:3 atomization_energy=-1552.78 smiles=C.O.C.C.C.N.O.H.H.H.H.H.H.H.H.H pbc="F F F"
C        2.57334910      -1.15303954       0.16692993
O        3.81727861      -0.48963982       0.36541985
C        3.74531853       0.88659962      -0.03146999
C        5.08538776       1.55673940       0.22510992
C        6.12262769       1.09995952      -0.77216966
N        6.45647759      -0.21928991      -0.69405971
O        6.65787729       1.84943924      -1.58048932
H        2.69729901      -2.20239919       0.44494983
H        2.27473903      -1.10248951      -0.88412967
H        1.80099933      -0.71029975       0.80188968
H        2.97084880       1.38439942       0.56405978
H        3.47528876       0.94699965      -1.09234958
H        5.45410782       1.33509944       1.23278946
H        4.98184817       2.64332888       0.12909995
H        5.83318759      -0.86096964      -0.21215992
H        7.08377713      -0.58805976      -1.39524941
