15
Properties=species:S:1:pos:R:3 atomization_energy=-1494.52 smiles=C.N.C.C.C.N.O.H.H.H.H.H.H.H.H pbc="F F F"
C        1.71872938      -0.92528963       1.19731951
N        2.73273893      -0.34568988       0.34249988
C        3.23580873       0.92425962       0.50005980
C        4.32742807       1.42916942      -0.08649997
C        4.73252824       2.82555899       0.18552993
N        5.82117763       3.22871873      -0.52385978
O        4.16188841       3.57008860       0.96808962
H        1.34025949      -1.84799931       0.74765972
H        0.87506966      -0.24004990       1.32783949
H        2.13752911      -1.16558949       2.17920919
H        3.34968861      -1.00959963      -0.11806995
H        2.64159890       1.54405937       1.17331953
H        4.92489802       0.83818968      -0.76535969
H        6.30413764       2.65069898      -1.19462953
H        6.13431769       4.18052838      -0.38709983
