16
Properties=species:S:1:pos:R:3 atomization_energy=-1600.79 smiles=C.N.C.C.O.C.C.H.H.H.H.H.H.H.H.H pbc="F F F"
C        0.88962968      -0.51537981      -0.80659970
N        2.02321914      -0.53951981       0.10627996
C        2.52639908      -1.85701927       0.46101981
C        2.76207900       0.56957978       0.49696982
O        3.71726863       0.49970982       1.26800948
C        2.36998903       1.88798927      -0.07868997
C        2.84367890       3.02519894       0.44820983
H        0.27920990       0.37644985      -0.65075972
H        0.25660990      -1.39086944      -0.63500978
H        1.26745952      -0.53154980      -1.83276923
H        1.70485936      -2.45793909       0.86216967
H        3.32151859      -1.81175924       1.20968955
H        2.92009893      -2.33267908      -0.44233982
H        1.73601937       1.92449921      -0.95209964
H        3.50433865       3.01841879       1.31104950
H        2.58435907       3.98787851       0.02220999
