18
Properties=species:S:1:pos:R:3 atomization_energy=-1705.73 smiles=C.O.C.C.C.C.N.H.H.H.H.H.H.H.H.H.H.H pbc="F F F"
C        1.44791940      -0.38436986      -0.08552997
O        2.85189883      -0.18299993      -0.15719994
C        3.19604864       1.17899950       0.10176996
C        4.70264818       1.31676947       0.05356998
C        5.44201762       0.64603974       1.18044953
C        5.36307780       1.37217952      -1.30666953
N        5.25640779       2.57345886      -0.48427979
H        1.23667953      -1.43055938      -0.32374986
H        0.92873963       0.25021991      -0.81084965
H        1.08372957      -0.17665994       0.92554966
H        2.82968889       1.47272936       1.09287960
H        2.71757887       1.82059929      -0.64815977
H        6.52067722       0.83021967       1.13446960
H        5.28840794      -0.43724982       1.14596959
H        5.08098811       1.01381962       2.14606926
H        4.73419816       1.33694953      -2.18791916
H        6.35205736       0.94923966      -1.43139940
H        6.15448754       2.79476902      -0.05102998
