15
Properties=species:S:1:pos:R:3 atomization_energy=-1505.88 smiles=C.C.C.C.C.N.N.H.H.H.H.H.H.H.H pbc="F F F"
C        0.99745959       0.02318999       0.53890979
C        2.32473897      -0.01411999      -0.13594995
C        2.62570885       0.94703964      -1.26671957
C        4.02337849       1.29102953      -1.61801930
C        4.52858806      -0.08177997      -1.88584925
N        3.63853850      -1.01516958      -1.77563928
N        2.39278918      -0.48860980      -1.51487941
H        0.98281958       0.81671970       1.29281945
H        0.80376968      -0.92846964       1.04429959
H        0.17769993       0.20781991      -0.16382993
H        3.11369883      -0.31177987       0.54462977
H        1.87028924       1.62878931      -1.62635936
H        4.57466829       1.74949928      -0.79421970
H        4.10497838       1.90041924      -2.52083897
H        5.58314801      -0.26401990      -2.13256904
