18
Properties=species:S:1:pos:R:3 atomization_energy=-1670.67 smiles=N.C.C.C.O.C.O.H.H.H.H.H.H.H.H.H.H.H pbc="F F F"
N        2.42604896      -0.42507982       1.87072931
C        2.34379907      -0.29281989       0.41545985
C        3.34651857       0.73685969      -0.11248995
C        4.81867816       0.43805984       0.20239992
O        5.05049792       0.44317983       1.61833938
C        5.31397767      -0.89944965      -0.35545986
O        6.70681744      -1.03976962      -0.07174998
H        1.75432928      -1.13475953       2.17479920
H        2.09792913       0.44546983       2.29978921
H        1.32820954       0.01308999       0.14071994
H        2.51997902      -1.26987951      -0.04558998
H        3.09153884       1.71602930       0.31342986
H        3.22284875       0.81889965      -1.19877950
H        5.44135802       1.24347948      -0.20437991
H        4.28363850      -0.02932999       2.01521923
H        5.17587779      -0.95713964      -1.43928941
H        4.80914812      -1.74734929       0.11699996
H        6.81422729      -0.70520972       0.84169967
