18
Properties=species:S:1:pos:R:3 atomization_energy=-1715.12 smiles=N.C.C.C.C.O.C.H.H.H.H.H.H.H.H.H.H.H pbc="F F F"
N        1.00061960       0.02501999       0.17291993
C        2.43455909       0.04540998      -0.07141997
C        3.09548883       1.06759954       0.87490968
C        4.16022833      -0.01855999       1.20123947
C        5.44114808       0.00582000       0.37930987
O        6.27031768       1.07390959       0.82205966
C        3.10681876      -1.06918961       0.75722970
H        0.52315978      -0.77361969      -0.24324990
H        0.51263981       0.85230970      -0.16870994
H        2.74215897       0.10396996      -1.11954950
H        2.50541900       1.35873947       1.75345936
H        3.46508852       1.97754920       0.39270986
H        4.39541822      -0.08432996       2.27120917
H        5.25140810       0.13208995      -0.69148971
H        5.99949761      -0.92531966       0.51703980
H        5.78701753       1.90447925       0.67559972
H        3.48850865      -1.91636922       0.17912993
H        2.51847891      -1.46161947       1.59642933
