17
Properties=species:S:1:pos:R:3 atomization_energy=-1583.17 smiles=N.C.C.O.C.N.C.H.H.H.H.H.H.H.H.H.H pbc="F F F"
N        0.94162960      -0.08869997       0.09265997
C        2.40913898      -0.04688998      -0.11359996
C        2.79563880      -0.03112999      -1.58268940
O        2.04706924       0.98168958      -2.25696910
C        3.03240879       1.02951960       0.80554968
N        3.94646843       0.00841999       1.36253945
C        3.10457881      -1.07080958       0.80986966
H        0.66845975       0.01712999       1.07258952
H        0.51674981      -0.96780960      -0.20615992
H        2.56322910      -0.98931964      -2.06008916
H        3.86166847       0.17098993      -1.72815937
H        1.17786956       0.99521959      -1.80677923
H        2.37297916       1.46414947       1.56667935
H        3.54311868       1.85347932       0.29550990
H        4.88241805       0.04666998       0.95664961
H        3.66858863      -1.86109921       0.30259987
H        2.47211910      -1.54476943       1.57073936
