19
Properties=species:S:1:pos:R:3 atomization_energy=-1787.96 smiles=C.C.C.C.N.C.N.H.H.H.H.H.H.H.H.H.H.H.H pbc="F F F"
C        1.03217961       0.03571999      -0.09422996
C        2.52378897       0.04612998      -0.08775997
C        3.29016871      -0.64438975      -1.17996959
C        3.32742870       0.86819969      -1.07733953
N        2.59842906       1.64104933      -2.11270918
C        4.60860836       1.52191945      -0.56677978
N        5.40753807       1.94415922      -1.72067927
H        0.64716974       0.94007965       0.38766985
H        0.66371971      -0.82926964       0.46650981
H        0.61471976      -0.02059999      -1.10443953
H        2.90522880      -0.03251999       0.92483966
H        2.73263901      -1.10068951      -1.98981919
H        4.17337832      -1.20661956      -0.89749964
H        2.41908916       1.05763958      -2.92689875
H        3.24976871       2.35729904      -2.45568905
H        5.19070780       0.83521968       0.05740998
H        4.35401823       2.39843913       0.03843998
H        5.66268787       1.11360950      -2.25356920
H        6.28046745       2.34440920      -1.38187951
