14
Properties=species:S:1:pos:R:3 atomization_energy=-1417.61 smiles=O.C.C.N.C.C.C.H.H.H.H.H.H.H pbc="F F F"
O        0.84077967      -0.25716990      -0.14843995
C        2.18806905       0.16437993       0.17112994
C        3.39547865      -0.65531973      -0.46581981
N        4.19841841       0.63556976      -0.20721992
C        2.89884885       1.22531957      -0.78271970
C        2.89977894       0.66535974      -2.15605906
C        3.23767876      -0.61266975      -1.94125918
H        0.29920989       0.54108981      -0.03236999
H        2.27043905       0.36934985       1.24676950
H        3.76229841      -1.56461932       0.00811000
H        4.35836842       0.83759967       0.77820972
H        2.73918902       2.29323920      -0.64063973
H        2.68681893       1.16451960      -3.08520886
H        3.36502858      -1.41298943      -2.64912897
