15
Properties=species:S:1:pos:R:3 atomization_energy=-1512.58 smiles=C.C.C.C.C.N.N.H.H.H.H.H.H.H.H pbc="F F F"
C        1.45651948       0.11894996       0.52486980
C        2.72977883      -0.09890995      -0.23260992
C        3.44260858       1.08835960      -0.83175965
C        4.04239847       0.36752984       0.34424986
C        4.87028798      -0.83193969       0.17400994
N        4.24922808      -1.81372932      -0.39809984
N        2.97848888      -1.44600937      -0.79311966
H        1.40242949       1.12627956       0.95193960
H        1.36961949      -0.59851977       1.34756952
H        0.59481978      -0.01210999      -0.13754995
H        3.03539892       2.07881920      -0.66573975
H        3.90541842       0.96476963      -1.80494932
H        4.04244842       0.84475969       1.31411948
H        5.90483756      -0.87516964       0.54272977
H        2.29861916      -2.15218905      -0.50477982
