6
Properties=species:S:1:pos:R:3 atomization_energy=-785.04 smiles=N.C.C.C.C.N pbc="F F F"
N        0.82331967       0.00000000       0.00000000
C        1.98302921       0.00000000       0.00000000
C        3.51407863       0.00000000       0.00000000
C        4.71409796       0.00000000       0.00000000
C        6.24514763       0.00000000       0.00000000
N        7.40485705       0.00000000       0.00000000
