15
Properties=species:S:1:pos:R:3 atomization_energy=-1451.26 smiles=C.O.C.N.N.C.C.H.H.H.H.H.H.H.H pbc="F F F"
C        3.28075877      -0.91461962       2.27438905
O        2.31762903      -1.36495944       1.31835954
C        2.46204906      -0.88024964       0.06163998
N        3.39332879      -0.06335998      -0.29517988
N        3.28270878       0.25242990      -1.64650940
C        4.23780858       1.04538960      -2.00989921
C        4.33842820       1.52603939      -3.42201860
H        3.05263869      -1.39017944       3.23267881
H        3.21494876       0.17026993       2.40290918
H        4.29021829      -1.21259955       1.97348919
H        1.67839940      -1.28204944      -0.60104977
H        5.01212792       1.39504944      -1.30441950
H        3.52212850       1.13092951      -4.03081848
H        5.29678786       1.20333950      -3.83742852
H        4.30575836       2.61891887      -3.42697867
