14
Properties=species:S:1:pos:R:3 atomization_energy=-1366.32 smiles=C.O.N.C.C.C.O.H.H.H.H.H.H.H pbc="F F F"
C        1.93759924      -0.25215991      -0.59967974
O        2.32295903       0.61398976       0.46780982
N        2.88054878       1.79584925      -0.07752997
C        2.08738913       2.91778884      -0.07730997
C        0.79417970       2.95547880       0.26265990
C        4.24779837       1.80155926      -0.24610990
O        4.94129803       2.74672893      -0.60822973
H        2.82296881      -0.62973978      -1.11975957
H        1.27491944       0.25980990      -1.30525951
H        1.39771948      -1.10100959      -0.17051993
H        2.59315887       3.83236852      -0.38261985
H        0.25279990       2.07212914       0.58446978
H        0.24793990       3.89319852       0.23656991
H        4.69481834       0.81708967      -0.02718999
