16
Properties=species:S:1:pos:R:3 atomization_energy=-1593.2 smiles=N.C.C.C.C.C.O.H.H.H.H.H.H.H.H.H pbc="F F F"
N        3.09089867      -1.05743961      -0.53254978
C        2.42143912       0.09670996       0.07124997
C        3.24680861       1.38791944      -0.00876000
C        3.50330863       1.86411924      -1.44496939
C        3.27994879       3.32170860      -1.30436953
C        2.74369894       3.55209864      -0.11194996
O        2.54757901       2.45014912       0.69128974
H        2.48367890      -1.87293923      -0.44686983
H        3.93075853      -1.27956953       0.00223000
H        2.19469905      -0.12504995       1.12094956
H        1.45212942       0.24868990      -0.41847984
H        4.20348825       1.24285950       0.51245980
H        2.79812881       1.44104942      -2.16793907
H        4.52168831       1.62616935      -1.76564936
H        3.47105867       4.06198845      -2.06530913
H        2.40464900       4.48596830       0.30417987
