14
Properties=species:S:1:pos:R:3 atomization_energy=-1359.51 smiles=C.C.O.C.C.O.H.H.H.H.H.H.H.H pbc="F F F"
C        0.70341975       1.17577950      -0.24505991
C       -0.73992968       1.17388954       0.25789989
O       -1.43123941       0.00232000      -0.19908993
C       -0.74149968      -1.17710954       0.24244990
C        0.70152972      -1.17475958      -0.26019989
O        1.39257949      -0.00355000       0.19635993
H        0.73606971       1.20789950      -1.34043953
H        1.24113948       2.04713914       0.14064995
H       -1.27576955       2.05054914      -0.11681996
H       -0.77224972       1.19181957       1.35329946
H       -0.77443970      -1.20905947       1.33794952
H       -1.27957950      -2.04836925      -0.14318995
H        1.23710950      -2.05208924       0.11379995
H        0.73364972      -1.19295948      -1.35572941
