14
Properties=species:S:1:pos:R:3 atomization_energy=-1415.14 smiles=N.C.C.C.C.O.O.H.H.H.H.H.H.H pbc="F F F"
N        1.95802924      -0.42518984      -1.28706945
C        2.43070902       0.11353996      -0.01159999
C        3.25327863       1.38132943      -0.22715991
C        2.49721899       2.64555899      -0.65660977
C        2.95100875       3.15906874       0.71641972
O        2.84080888       4.16941823       1.36910940
O        3.58969853       2.00714917       1.04669958
H        1.34886941      -1.22438948      -1.10419956
H        2.74679883      -0.80338967      -1.81349932
H        3.03511884      -0.64490974       0.49792981
H        1.56436939       0.32411988       0.62560974
H        4.16652828       1.19896951      -0.80826969
H        1.41485946       2.56275901      -0.75884973
H        2.93062896       3.19038886      -1.49796943
