16
Properties=species:S:1:pos:R:3 atomization_energy=-1605.74 smiles=C.N.C.O.C.C.C.H.H.H.H.H.H.H.H.H pbc="F F F"
C        3.81350853      -1.07870956      -1.02351961
N        2.91818878      -0.14233995      -0.34751985
C        1.68620930      -0.65803973       0.05916997
O        1.29001945      -1.80862933      -0.09687996
C        3.30827877       1.18972951      -0.13622994
C        2.36351901       2.13363918       0.57048975
C        4.49955835       1.66736937      -0.53931977
H        4.74146833      -1.17084958      -0.45002983
H        4.02470853      -0.71317973      -2.03356914
H        3.37702869      -2.07741914      -1.11451953
H        1.04007960       0.07400997       0.56227977
H        2.14313920       1.77560926       1.58160941
H        1.42881944       2.23798900       0.00964000
H        2.78538886       3.13965866       0.67478974
H        5.24383816       1.07090962      -1.05332958
H        4.77808816       2.70279882      -0.36371986
