17
Properties=species:S:1:pos:R:3 atomization_energy=-1564.14 smiles=C.N.C.C.C.N.O.H.H.H.H.H.H.H.H.H.H pbc="F F F"
C        0.92635965      -0.28169990       0.28375991
N        2.25825902      -0.33702987      -0.32815986
C        2.32960897      -1.47514947      -1.24768950
C        2.55951907       0.91004965      -1.05795960
C        2.73908885       2.04762917      -0.08060997
N        1.98669924       3.10171889      -0.13534995
O        2.37909895       3.98860851       0.87481966
H        0.86825968       0.51196980       1.03624959
H        0.70932972      -1.21784956       0.81117970
H        0.13630995      -0.11528996      -0.45781984
H        2.13899919      -2.41385909      -0.71477970
H        3.33374859      -1.55998942      -1.67850928
H        1.60764937      -1.39101945      -2.06844914
H        1.78446924       1.15623960      -1.79274924
H        3.51741874       0.81233967      -1.58284937
H        3.54321860       1.94190918       0.66950977
H        1.75510936       4.72951792       0.75690968
