16
Properties=species:S:1:pos:R:3 atomization_energy=-1611.74 smiles=N.C.O.C.C.C.C.H.H.H.H.H.H.H.H.H pbc="F F F"
N        0.93634963       0.14400994      -0.29904988
C        2.13973928       0.06516998       0.34551987
O        2.38655912      -0.92535966       1.03225960
C        3.08441881       1.27171951       0.12020996
C        2.49797902       2.70896883       0.20772992
C        3.82969861       3.14533864       0.84555965
C        4.00486848       1.68602939       1.30301944
H        0.67285972       0.91989965      -0.88919964
H        0.29132987      -0.62768977      -0.18298994
H        3.66579860       1.12896953      -0.80354971
H        1.63617933       2.80689883       0.87838964
H        2.25937912       3.18227867      -0.74848970
H        4.58104823       3.47294864       0.11800995
H        3.75515844       3.88917838       1.64243929
H        5.02747824       1.30156954       1.26469953
H        3.58492871       1.48115937       2.29487910
