14
Properties=species:S:1:pos:R:3 atomization_energy=-1452.85 smiles=C.O.C.C.C.C.N.H.H.H.H.H.H.H pbc="F F F"
C        3.37073858      -1.18731949      -0.05307998
O        2.50960896      -0.06416998       0.09868997
C        3.08252885       1.17578960       0.08133997
C        4.37727812       1.50714936      -0.03714999
C        4.86909799       2.92846876      -0.03989998
C        5.61955789       3.21574865      -1.27059953
N        6.22408756       3.44757875      -2.23652901
H        2.75456886      -2.09085919      -0.02435999
H        4.09047842      -1.24245955       0.77014969
H        3.88422840      -1.15834960      -1.01971962
H        2.29533910       1.91725919       0.18377993
H        5.14131799       0.74050972      -0.13038994
H        5.51829786       3.07653876       0.83049970
H        4.03663850       3.63490846       0.05707997
