15
Properties=species:S:1:pos:R:3 atomization_energy=-1477.49 smiles=C.N.N.C.C.C.O.H.H.H.H.H.H.H.H pbc="F F F"
C        1.13186958      -0.01914999       0.16218994
N        2.56634892      -0.02955999      -0.00051000
N        3.27662861       1.17620948      -0.14881994
C        4.50497843       0.79216969      -0.85639967
C        4.70558834      -0.68948973      -0.57976980
C        3.30399873      -1.15753949      -0.33342986
O        2.92598884      -2.31583900      -0.37357986
H        0.75299968      -1.03836961       0.27719989
H        0.67731974       0.43152982      -0.72500971
H        0.87639963       0.56825977       1.04845959
H        3.52313859       1.49607947       0.79202971
H        4.36133836       0.95938962      -1.93049927
H        5.36345781       1.39106941      -0.53712979
H        5.14516806      -1.20620952      -1.43606941
H        5.29959782      -0.86005967       0.32321988
