18
Properties=species:S:1:pos:R:3 atomization_energy=-1786.19 smiles=C.C.C.C.C.C.N.H.H.H.H.H.H.H.H.H.H.H pbc="F F F"
C        1.46740946      -0.22759991      -0.42519984
C        2.84048892       0.07146997       0.09968996
C        3.64076861      -1.05257959       0.70169973
C        4.05279830      -0.46021982      -0.61832974
C        5.06211777       0.64348975      -0.67144975
C        4.26159837       1.90658924      -0.33060987
N        3.11292871       1.47752946       0.49237981
H        1.11077960       0.58200974      -1.06957959
H        0.76390973      -0.33859988       0.40602985
H        1.44861949      -1.15217959      -1.01111961
H        3.21462880      -2.04968920       0.69447971
H        4.24605830      -0.85114967       1.57742942
H        3.93084837      -1.01884959      -1.53352933
H        5.85163755       0.47115980       0.06875997
H        5.52314767       0.72356972      -1.66072940
H        4.87232833       2.65773902       0.17906994
H        3.87487852       2.35686907      -1.25236949
H        3.38373869       1.50539945       1.47535941
