12
Properties=species:S:1:pos:R:3 atomization_energy=-1279.51 smiles=C.O.C.C.C.C.N.H.H.H.H.H pbc="F F F"
C        1.10925956      -0.13283995      -0.57067975
O        2.40324907      -0.01320999       0.00540000
C        2.89400889       1.33854944       0.00000000
C        2.39407910       2.04592921       1.15534950
C        1.98203918       2.62895887       2.10759922
C        4.33800832       1.33854944       0.00000000
N        5.48901785       1.33854944       0.00000000
H        0.80476967      -1.18142958      -0.51232979
H        1.13063959       0.16245993      -1.62418931
H        0.37868986       0.47067980      -0.02416999
H        2.55574900       1.83544923      -0.91829962
H        1.61966942       3.14534873       2.96722886
