12
Properties=species:S:1:pos:R:3 atomization_energy=-1339.76 smiles=N.C.C.C.O.C.C.H.H.H.H.H pbc="F F F"
N        1.03498958       0.07254997      -0.18209993
C        2.39140918      -0.03801999      -0.10136996
C        3.13222877      -1.15032950      -0.04971998
C        4.52161816      -0.68321974       0.03275999
O        5.50589780      -1.39379951       0.10588996
C        4.52584824       0.78445971       0.02033999
C        3.23828864       1.12595960      -0.06035998
H        0.53155976      -0.76945969       0.08545997
H        0.65695976       0.90989964       0.25322990
H        2.83607893      -2.18119908      -0.06489997
H        5.40557796       1.39899943       0.06101998
H        2.86897888       2.13971910      -0.10536996
