13
Properties=species:S:1:pos:R:3 atomization_energy=-1351.87 smiles=O.C.C.C.C.N.N.H.H.H.H.H.H pbc="F F F"
O        0.89526966      -0.16732994       0.00691000
C        2.12267916      -0.07706997      -0.00441000
C        2.80521881       1.26011946      -0.05554997
C        4.31466818       1.23124948      -0.03560998
C        4.91610831      -0.13484994      -0.01178999
N        4.26098824      -1.24818949       0.01610999
N        2.90801882      -1.19308956       0.02268999
H        2.44222895       1.84955922       0.79493966
H        2.46354892       1.76834931      -0.96552960
H        4.69423797       1.77263932       0.83914967
H        4.71643808       1.75394927      -0.91159966
H        6.01816760      -0.18556993      -0.01377000
H        2.42384914      -2.08643922       0.05172998
