16
Properties=species:S:1:pos:R:3 atomization_energy=-1529.77 smiles=N.C.C.O.C.O.C.H.H.H.H.H.H.H.H.H pbc="F F F"
N        0.98838961       0.00412000       0.09302996
C        2.45605897      -0.00559000      -0.02086999
C        2.95891883      -1.33818949      -0.59943977
O        2.64863894      -1.46640948      -1.98507927
C        3.16154865      -0.37033987      -2.72948891
O        2.63950884       0.88050967      -2.30354920
C        2.94923890       1.12853956      -0.93412962
H        0.66536977       0.88496962       0.48490980
H        0.67152974      -0.74506973       0.70303973
H        2.86515885       0.13261995       0.98622959
H        2.51188903      -2.18747909      -0.07092997
H        4.04613852      -1.42163947      -0.47441982
H        4.25807835      -0.36077986      -2.69039901
H        2.87119890      -0.51325978      -3.77434848
H        4.03564835       1.25067950      -0.83694966
H        2.49509891       2.08448921      -0.65058971
