11
Properties=species:S:1:pos:R:3 atomization_energy=-1161.48 smiles=O.C.C.N.N.C.C.H.H.H.H pbc="F F F"
O       -1.15842958       0.70834973       0.73000972
C       -1.06297961      -0.41844985      -0.15630994
C       -0.12708995      -1.46448948       0.25632990
N        1.15673960      -1.29485955       0.26458989
N        1.73471935      -0.05557998      -0.06672997
C        1.00569960       0.96365963      -0.39288986
C       -0.45116983       0.89284968      -0.50702979
H       -1.95808929      -0.73051974      -0.67615971
H       -0.54493975      -2.43985905       0.55051981
H        1.49167944       1.92577928      -0.61722976
H       -0.91892962       1.49748937      -1.27169945
