13
Properties=species:S:1:pos:R:3 atomization_energy=-1344.87 smiles=N.C.C.O.C.C.N.H.H.H.H.H.H pbc="F F F"
N        0.90332962       0.08961997      -0.01222999
C        2.29290915       0.02703999      -0.00704000
C        2.87193898      -1.38201943      -0.03345999
O        2.17487918      -2.12728926      -1.03305962
C        3.05351883       1.13798949       0.00000000
C        4.45951843       1.13798949       0.00000000
N        5.61052796       1.13798949       0.00000000
H        0.50344981       0.92718963      -0.42651984
H        0.48918981      -0.77351970      -0.37782985
H        2.70363883      -1.87071921       0.93136962
H        3.94012835      -1.42227938      -0.26100989
H        2.42221908      -1.73360935      -1.88721928
H        2.57865890       2.11257923       0.02327999
