17
Properties=species:S:1:pos:R:3 atomization_energy=-1601.52 smiles=C.N.C.N.C.C.O.H.H.H.H.H.H.H.H.H.H pbc="F F F"
C        1.01816962      -0.42481982       0.11173995
N        2.42333892      -0.15962994      -0.20519993
C        2.92024881      -1.11636950      -1.19660958
N        2.58525888       1.15702952      -0.66577975
C        3.37779856       2.08332925      -0.02915999
C        4.09486848       1.63891939       1.21814958
O        3.48459852       3.22529863      -0.47513982
H        0.66285977       0.27104988       0.88021968
H        0.89879965      -1.43520947       0.51797980
H        0.37125987      -0.32395987      -0.76747971
H        2.84099888      -2.14083920      -0.81678965
H        3.98111856      -0.93485961      -1.40299939
H        2.37098902      -1.05181957      -2.14299915
H        2.11072914       1.47738942      -1.50500947
H        3.37246856       1.33663942       1.98149920
H        4.68567839       2.47146909       1.61229933
H        4.77357799       0.81250967       0.98960963
