17
Properties=species:S:1:pos:R:3 atomization_energy=-1654.22 smiles=C.C.C.N.C.C.N.H.H.H.H.H.H.H.H.H.H pbc="F F F"
C        1.48091940       0.22630991      -0.37381986
C        2.83110901      -0.11338996       0.17058993
C        3.09614868      -1.54872939       0.54379979
N        4.24273812      -1.93436927      -0.29489989
C        5.04156791      -0.73264973      -0.57752979
C        4.05595849       0.39048984      -0.50729979
N        3.63152849       0.97052960       0.76650969
H        1.41724941       1.27164948      -0.69700971
H        0.71326975       0.06390998       0.39034983
H        1.24305947      -0.40521984      -1.23663953
H        2.24460917      -2.20344914       0.33435986
H        3.34902876      -1.63363937       1.60674931
H        4.80710827      -2.64083888       0.17060993
H        5.83295747      -0.60692979       0.16957993
H        5.49854790      -0.80890967      -1.56811941
H        3.97437853       0.99440960      -1.39851950
H        4.19986831       0.61624977       1.53580940
