15
Properties=species:S:1:pos:R:3 atomization_energy=-1470.4 smiles=C.N.C.N.C.C.O.H.H.H.H.H.H.H.H pbc="F F F"
C        0.59032979       2.34853911      -0.03827999
N        2.03661919       2.54097904      -0.10314996
C        2.69128898       1.43587941      -0.07453997
N        4.04372850       1.33070951      -0.13219995
C        4.92458815       2.48092899      -0.14040995
C        6.36990728       2.03134926      -0.18053993
O        6.72840741       0.85632965      -0.12166995
H        0.09410996       3.30819878      -0.21291992
H        0.28643988       1.98869922       0.95029964
H        0.23870991       1.65077934      -0.80642969
H        2.19817920       0.44884984      -0.00182000
H        4.49767798       0.42747984      -0.00986000
H        4.78576811       3.08351874       0.76268971
H        4.73927810       3.09992886      -1.02357960
H        7.11148714       2.84514898      -0.24999991
