18
Properties=species:S:1:pos:R:3 atomization_energy=-1657.9 smiles=N.C.C.O.C.C.O.H.H.H.H.H.H.H.H.H.H.H pbc="F F F"
N        2.74817883      -0.74321970      -1.21614948
C        2.39421914      -0.02658999       0.01216000
C        2.91837879       1.41407950      -0.00687000
O        4.35245832       1.39733947      -0.01200999
C        4.88436806       2.72938898       0.00667000
C        6.40587760       2.63433908      -0.02477999
O        6.82589711       2.00596915      -1.23468952
H        2.56278903      -1.73700926      -1.09040953
H        3.75757855      -0.65528976      -1.34778943
H        2.82863894      -0.56211979       0.86347964
H        1.30554943      -0.02502999       0.12305995
H        2.56802895       1.93673929       0.89040964
H        2.55168899       1.94479926      -0.89329965
H        4.55756830       3.24453864       0.91623965
H        4.52351822       3.26727873      -0.87737963
H        6.77709725       2.02933918       0.80806965
H        6.86046750       3.62756865       0.02323999
H        6.25190759       1.22147947      -1.32881942
