11
Properties=species:S:1:pos:R:3 atomization_energy=-974.5 smiles=N.C.C.O.H.H.H.H.H.H.H pbc="F F F"
N        0.97306963       0.00114000       0.03759999
C        2.43163911       0.01319000      -0.00770000
C        3.00113890       1.43468942      -0.00790000
O        4.42464827       1.39642944      -0.02801999
H        0.64405976      -0.96305965      -0.00423000
H        0.60335974       0.45827983      -0.79627967
H        2.78089888      -0.52223978      -0.89806965
H        2.82555899      -0.53680977       0.85450964
H        2.68207889       1.99301925       0.87868967
H        2.66816888       1.98351923      -0.89477963
H        4.71191832       1.02900958       0.82580968
