15
Properties=species:S:1:pos:R:3 atomization_energy=-1457.02 smiles=C.N.N.C.C.C.O.H.H.H.H.H.H.H.H pbc="F F F"
C        1.10219958       1.80850934      -1.30420943
N        1.55897934       1.99063927       0.07384997
N        2.90433883       2.44402908       0.10577996
C        3.15875888       3.79119841       0.27319990
C        2.23502916       4.75318811       0.38975985
C        3.91690858       1.48097946       0.07562997
O        3.75100860       0.26596989       0.00669000
H        0.06190997       1.46835936      -1.29797950
H        1.69883937       1.05791961      -1.83337924
H        1.13940961       2.74885886      -1.86402928
H        1.55558939       1.06936952       0.52526981
H        4.20947835       4.06834846       0.31640987
H        1.17190950       4.53760840       0.36462986
H        2.52842909       5.78861781       0.52337979
H        4.92535827       1.92395922       0.13049995
