16
Properties=species:S:1:pos:R:3 atomization_energy=-1563.37 smiles=C.O.C.C.C.C.N.H.H.H.H.H.H.H.H.H pbc="F F F"
C        4.22447843      -0.97175959      -0.32140987
O        3.13307887      -0.05857998      -0.29142989
C        3.43295868       1.26589948      -0.13763995
C        4.62966843       1.85999930      -0.00233000
C        4.83802793       3.29991878       0.14909994
C        4.61497821       3.93921844       1.49497943
N        5.96127750       3.71636856       0.98314963
H        3.81698843      -1.97938920      -0.44503983
H        4.78345827      -0.94643960       0.61962974
H        4.88191793      -0.76666973      -1.17274951
H        2.50882901       1.83470928      -0.13548994
H        5.53476803       1.25983950      -0.00892999
H        4.65854825       3.89519850      -0.74031972
H        4.31640826       3.31786862       2.33036899
H        4.26881807       4.96418801       1.52966942
H        6.36671730       4.58471814       0.63095973
