18
Properties=species:S:1:pos:R:3 atomization_energy=-1717.17 smiles=N.C.C.C.O.C.C.H.H.H.H.H.H.H.H.H.H.H pbc="F F F"
N        0.76339970       0.24928991      -0.23337990
C        2.16275921       0.20752992      -0.66064972
C        3.10600878       0.45683981       0.51783979
C        4.54884824       0.40844983       0.09361997
O        4.94375826       1.47214938      -0.78505969
C        5.59836762      -0.09533996       1.05005956
C        5.22515808      -0.91233961      -0.15453993
H        0.16611993       0.10675996      -1.04742957
H        0.54809976       1.18405950       0.11242995
H        2.32284901       0.95591962      -1.44496939
H        2.36701909      -0.77392968      -1.10298951
H        2.91591881      -0.28747990       1.30165949
H        2.90204892       1.43960937       0.96060964
H        5.77817786       1.88568927      -0.50469980
H        5.28158793      -0.45868981       2.02178918
H        6.57451764       0.37393985       1.05851953
H        5.93310774      -0.97305960      -0.97313959
H        4.65597800      -1.82117927       0.00328000
