14
Properties=species:S:1:pos:R:3 atomization_energy=-1414.1 smiles=C.O.C.C.C.N.O.H.H.H.H.H.H.H pbc="F F F"
C        1.81359924      -0.40496984      -0.94763963
O        3.15262874       0.05516998      -0.81142970
C        3.33604859       1.34661950      -0.35176987
C        2.37172911       2.22031925      -0.01422999
C        4.76042800       1.82154932      -0.21611991
N        5.68473758       0.88628963      -0.57212977
O        5.08633804       2.93513888       0.17379994
H        1.84822931      -1.43330942      -1.31957943
H        1.26347950       0.19785993      -1.67760935
H        1.30149952      -0.41481984       0.02002999
H        1.31606950       1.99172921      -0.07024998
H        2.62435887       3.21782861       0.33817987
H        5.39592780      -0.02858999      -0.89178963
H        6.66427742       1.12108961      -0.51159979
