16
Properties=species:S:1:pos:R:3 atomization_energy=-1626.66 smiles=C.C.C.C.C.C.N.H.H.H.H.H.H.H.H.H pbc="F F F"
C        1.04323961       0.00836000       0.01502000
C        2.37454916      -0.05614998       0.00014000
C        3.30100860      -1.22794950       0.05122998
C        4.58924799      -0.38822984      -0.03879998
C        4.37760818       0.71369972      -1.13624954
C        3.28746876       1.10867957      -0.07635997
N        4.37941840       0.77109972       0.94137960
H        0.44340983      -0.89377964       0.07803997
H        0.52078979       0.95886963      -0.02275999
H        3.19158869      -1.89281927      -0.80954970
H        3.23803884      -1.78076931       0.99250961
H        5.55348798      -0.89542964       0.01005000
H        4.02496843       0.37523986      -2.11510923
H        5.19997795       1.42515949      -1.27788951
H        2.88427874       2.12092925      -0.05908998
H        5.14232782       1.44700949       0.96165959
