14
Properties=species:S:1:pos:R:3 atomization_energy=-1426.76 smiles=C.N.C.C.O.C.C.H.H.H.H.H.H.H pbc="F F F"
C        2.72382886      -0.93176963      -1.04269956
N        2.47081909      -0.08218997       0.11618995
C        3.02055882       1.27548946      -0.07216997
C        4.54401811       1.29534944       0.00036000
O        5.21746804       0.50653980       0.65535972
C        5.19975791       2.35243914      -0.74359971
C        5.74233774       3.22223861      -1.36826952
H        2.24584912      -1.90416925      -0.88920967
H        3.79315852      -1.10708951      -1.19702958
H        2.29865902      -0.49726981      -1.95324920
H        2.93455877      -0.49879982       0.92931962
H        2.64927886       1.91663922       0.73502972
H        2.67178882       1.70039927      -1.02006961
H        6.23406777       3.98945835      -1.92287924
