17
Properties=species:S:1:pos:R:3 atomization_energy=-1581.66 smiles=C.N.N.C.C.O.C.H.H.H.H.H.H.H.H.H.H pbc="F F F"
C        2.34983912      -1.02953960      -1.13665958
N        3.67568848      -0.75124970      -0.59602977
N        3.91671857       0.54915981      -0.29612988
C        5.10038785       0.83562965       0.15649994
C        6.23958777      -0.11844995       0.37787984
O        5.46176809       2.10639913       0.48330980
C        4.47616826       3.11880878       0.25475990
H        2.27798906      -2.08445918      -1.41715946
H        2.15986926      -0.42890983      -2.03174920
H        1.57367940      -0.81529970      -0.39524985
H        3.83210837      -1.36175950       0.20947992
H        5.92499781      -0.93364962       1.03466962
H        7.08432721       0.39058986       0.85158967
H        6.57033753      -0.52145979      -0.58297976
H        4.93095800       4.08721830       0.48090981
H        3.62083847       2.97321895       0.92132961
H        4.16109836       3.12491873      -0.79343968
