18
Properties=species:S:1:pos:R:3 atomization_energy=-1740.7 smiles=O.C.C.C.C.N.C.H.H.H.H.H.H.H.H.H.H.H pbc="F F F"
O        1.10432951       0.10793995       0.20722991
C        2.52909903       0.03670999       0.10455996
C        2.92154883      -1.33264943      -0.45242982
C        2.50141905      -1.47723941      -1.91631926
C        2.95748887      -0.28350987      -2.75345886
N        2.49102906       0.98370962      -2.18147916
C        3.02088886       1.16457953      -0.81728965
H        0.79720970       0.34844988      -0.69092972
H        2.93857891       0.16359993       1.11165961
H        2.45102900      -2.13091904       0.13349995
H        4.00849851      -1.45944942      -0.37570985
H        2.92141888      -2.40109895      -2.32961906
H        1.41016950      -1.57221941      -1.97747918
H        4.05084828      -0.27698989      -2.84172888
H        2.55553906      -0.38189985      -3.76792842
H        2.82025877       1.75339931      -2.76634895
H        4.11565830       1.20607957      -0.83353966
H        2.65232904       2.12550906      -0.44187982
