13
Properties=species:S:1:pos:R:3 atomization_energy=-1359.04 smiles=N.C.C.C.N.C.O.H.H.H.H.H.H pbc="F F F"
N        1.00032961      -0.04405998      -0.16801994
C        2.43826911      -0.07222997       0.08325997
C        3.09289890      -1.25195945      -0.57917978
C        4.01120830      -0.86516963      -1.46840945
N        4.06928839       0.49020980      -1.52088943
C        3.15584874       1.07694955      -0.65825976
O        2.95838893       2.27480918      -0.52510980
H        0.67521971       0.91163965      -0.00975000
H        0.53118978      -0.62189978       0.52507980
H        2.67570904      -0.02023999       1.15010959
H        2.84255880      -2.27829917      -0.35798986
H        4.63521820      -1.48326937      -2.09883916
H        4.65400830       1.03558962      -2.13843927
