12
Properties=species:S:1:pos:R:3 atomization_energy=-1270.29 smiles=N.C.C.O.C.C.O.H.H.H.H.H pbc="F F F"
N        0.96695962       0.02302999      -0.05156998
C        2.31047898      -0.02112999      -0.02267999
C        3.16155875       1.06024964      -0.01255999
O        4.45951843       0.64456972       0.01881999
C        4.43577810      -0.71783972       0.02570999
C        3.13922869      -1.16015957       0.00040000
O        2.78605880      -2.45547911      -0.00779000
H        0.46443981       0.90360965       0.02417999
H        0.37526985      -0.78880972       0.07927996
H        3.01928883       2.13065914      -0.02265999
H        5.39899766      -1.20754952       0.04494998
H        1.81993932      -2.51614889      -0.07125997
