16
Properties=species:S:1:pos:R:3 atomization_energy=-1498.75 smiles=C.O.N.C.C.C.O.H.H.H.H.H.H.H.H.H pbc="F F F"
C        1.81115932      -0.61221978       0.38519984
O        3.15536880      -0.27574990       0.05795998
N        3.29569880       1.11898958       0.13273994
C        4.54627799       1.41389946      -0.03124999
C        5.00736794       2.86010894      -0.02463999
C        5.32384786       3.30389881      -1.44089941
O        4.02712839       3.72352846       0.52798978
H        1.68890937      -1.69224935       0.27205990
H        1.11505952      -0.10489996      -0.28977990
H        1.59872933      -0.33905988       1.42284940
H        5.31586814       0.64222973      -0.21061992
H        5.90671793       2.92241886       0.59525978
H        4.42597805       3.27894880      -2.07008917
H        6.08085778       2.66114902      -1.90257919
H        5.68760759       4.33708831      -1.44779941
H        3.16504874       3.29326860       0.35918985
