16
Properties=species:S:1:pos:R:3 atomization_energy=-1646.9 smiles=C.C.C.C.C.N.C.H.H.H.H.H.H.H.H.H pbc="F F F"
C        1.07804959      -0.13036995       0.06689997
C        2.53932904       0.13165995      -0.00826000
C        3.14421879       1.31843952       0.21019992
C        4.64051816       1.16309948       0.07206997
C        4.85420792      -0.30519989      -0.23780991
N        4.46235817      -1.36027945       0.69051975
C        3.48788867      -0.95700963      -0.31146988
H        0.88377963      -1.13310953       0.46044982
H        0.62808978      -0.05790998      -0.92714963
H        0.57903980       0.58426974       0.72679969
H        2.64958897       2.24640904       0.45536982
H        5.00842824       1.78551931      -0.74775971
H        5.15017785       1.44560943       0.99792962
H        5.60197797      -0.53209981      -0.98638963
H        4.21068827      -0.97314962       1.60293935
H        3.27641867      -1.62985932      -1.13204961
