18
Properties=species:S:1:pos:R:3 atomization_energy=-1700.02 smiles=C.N.C.C.C.C.O.H.H.H.H.H.H.H.H.H.H.H pbc="F F F"
C        0.75276968      -0.56518978       0.00301000
N        2.13444916      -0.20253991      -0.32395987
C        2.78940900      -1.32370946      -1.00007961
C        2.14306905       1.01672963      -1.14829950
C        3.53058867       1.55384944      -1.31749946
C        4.29462853       1.38510948      -2.60594904
O        3.63494858       2.61490907      -2.28061910
H        0.26033990       0.24331991       0.55573979
H        0.72841972      -1.44664941       0.65431974
H        0.15917994      -0.78217971      -0.89304965
H        2.74146884      -2.22710923      -0.38058985
H        3.85449848      -1.12257950      -1.15674956
H        2.33080905      -1.54903938      -1.97037921
H        1.56209941       1.79856925      -0.64201972
H        1.66362931       0.84057970      -2.12149926
H        4.06691850       1.67505929      -0.38613984
H        3.86622860       0.78071972      -3.39492857
H        5.37596789       1.36974944      -2.55952892
