15
Properties=species:S:1:pos:R:3 atomization_energy=-1424.56 smiles=C.O.N.C.N.C.C.H.H.H.H.H.H.H.H pbc="F F F"
C        2.45828908      -0.77761971       0.29690990
O        3.23650870       0.01913999      -0.59201979
N        3.37242870       1.27974944       0.00885000
C        4.60775800       1.85348928      -0.21460991
N        5.63805781       1.13206955      -0.54920977
C        4.84825795       3.31819867      -0.09100996
C        3.96806849       4.17591828       0.43832983
H        2.37832909      -1.78213934      -0.12754995
H        1.45091949      -0.36125985       0.39794986
H        2.94133891      -0.85053966       1.27657954
H        2.58678902       1.89503928      -0.18508993
H        5.28105803       0.16840993      -0.59855977
H        5.81556780       3.65835862      -0.44884984
H        3.01091875       3.86987857       0.84180969
H        4.21721835       5.23070785       0.50496979
