18
Properties=species:S:1:pos:R:3 atomization_energy=-1799.49 smiles=C.C.C.C.C.C.N.H.H.H.H.H.H.H.H.H.H.H pbc="F F F"
C        0.99671963       0.01834999       0.01661999
C        2.48431906       0.00470000      -0.04068999
C        3.26780862      -1.08049960      -0.11487996
C        4.71578808      -0.72175969      -0.06736997
C        4.69584835       0.78090966      -0.34384988
C        3.29755873       1.25927945       0.07430997
N        2.82075889       2.33968910      -0.77232971
H        0.58671975      -0.99668960       0.00883000
H        0.57973977       0.55165978      -0.84303967
H        0.65468972       0.51012981       0.93263960
H        2.90991887      -2.09962921      -0.15708994
H        5.13230775      -0.94699965       0.92030962
H        5.29415806      -1.25496951      -0.82791967
H        4.87157790       0.94877966      -1.41552940
H        5.48943773       1.30994946       0.19462992
H        3.30260864       1.59162936       1.11939962
H        2.80521881       2.01826916      -1.73949927
H        3.49144856       3.10537870      -0.74549971
