14
Properties=species:S:1:pos:R:3 atomization_energy=-1420.36 smiles=N.C.O.O.C.C.C.H.H.H.H.H.H.H pbc="F F F"
N        1.28610945       1.96983922      -1.35665950
C        2.43678894       2.15246914      -0.66722976
O        2.60844888       3.07065868       0.11924995
O        3.33489871       1.18622955      -0.98282962
C        4.61947828       1.26236950      -0.33516987
C        5.70391778       0.42762982      -0.95933959
C        5.71770768       1.91934925      -1.12380961
H        1.20050948       1.20377957      -2.00530918
H        0.53486978       2.63116904      -1.23258949
H        4.63922825       1.36744944       0.74598973
H        5.45089766      -0.17681993      -1.82222922
H        6.44097738      -0.01763999      -0.30208988
H        6.45503728       2.49114891      -0.57287977
H        5.47043769       2.33094910      -2.09538916
