16
Properties=species:S:1:pos:R:3 atomization_energy=-1628.48 smiles=C.C.C.C.C.C.H.H.H.H.H.H.H.H.H.H pbc="F F F"
C        0.99663958       0.00114000       0.00656000
C        2.52762895      -0.00676000      -0.03572999
C        3.05913875      -1.22569946      -0.80795970
C        3.35496863      -0.66534971      -2.16084906
C        3.36199859       0.67103971      -2.15368916
C        3.07141871       1.21670953      -0.79172969
H        0.63147973       0.88185964       0.54520981
H        0.62153977      -0.88758964       0.52487980
H        0.56162976       0.01522999      -0.99837959
H        2.89389887      -0.01528000       0.99787960
H        2.32986912      -2.03990921      -0.85800967
H        3.98166839      -1.60843942      -0.35808985
H        3.56987866      -1.27700951      -3.02670888
H        3.58358858       1.29184948      -3.01054883
H        3.99813855       1.58446934      -0.33751986
H        2.35046919       2.03901924      -0.83194965
