16
Properties=species:S:1:pos:R:3 atomization_energy=-1553.07 smiles=C.O.C.C.N.C.C.H.H.H.H.H.H.H.H.H pbc="F F F"
C        1.69616932      -0.52122979      -0.51114979
O        3.04405868      -0.06903998      -0.50084979
C        3.14473885       1.27021953       0.00507000
C        4.62778805       1.69899934       0.04443998
N        5.24791785       1.59485933      -1.28367950
C        4.76071818       3.07812870       0.53838980
C        4.87337803       4.20336839       0.94234962
H        1.67729936      -1.53810940      -0.91210962
H        1.08187960       0.11899996      -1.15146953
H        1.29095951      -0.53883977       0.50514980
H        2.71906889       1.30919953       1.01563962
H        2.56435904       1.94228919      -0.64046972
H        5.17081804       1.01521961       0.70707975
H        4.75786835       2.22063921      -1.92006928
H        5.03637797       0.65381975      -1.62494933
H        4.98641789       5.20192796       1.29721947
