13
Properties=species:S:1:pos:R:3 atomization_energy=-1275.06 smiles=N.C.C.N.O.C.C.H.H.H.H.H.H pbc="F F F"
N        2.02373920      -0.37980986       1.39703945
C        2.40961917      -0.00839000       0.02759999
C        2.91362890       1.41640940      -0.00154000
N        2.22305906       2.51442899       0.03098999
O        0.84848965       2.25116902       0.08895997
C        4.32961830       1.68248931      -0.04976998
C        5.51030805       1.90330931      -0.08910996
H        1.54306935      -1.27732946       1.37257947
H        1.33007944       0.30116988       1.71624934
H        1.54778933      -0.10195996      -0.64082973
H        3.19135882      -0.68779975      -0.32635989
H        0.46876981       3.15056871       0.11017995
H        6.55554738       2.10606921      -0.11762996
