15
Properties=species:S:1:pos:R:3 atomization_energy=-1475.9 smiles=N.C.C.C.C.C.H.H.H.H.H.H.H.H.H pbc="F F F"
N        0.92268961       0.00206000      -0.29124988
C        2.35267911      -0.05584998       0.00607000
C        3.23969867      -0.88525968      -0.87284965
C        3.32741860       0.61659975      -0.93023962
C        4.49974811       1.28891954      -0.36304986
C        5.75366792       1.19751948      -0.82575965
H        0.50967981       0.84903967       0.09773996
H        0.43337982      -0.77854967       0.14508994
H        2.59415886      -0.05514997       1.06732955
H        2.79770893      -1.39218951      -1.72303932
H        4.04128846      -1.44084945      -0.40008985
H        2.91740882       1.10107961      -1.81161932
H        4.31981826       1.93181921       0.49652982
H        5.99079773       0.58062974      -1.68720929
H        6.56509762       1.73897934      -0.35124987
