20
Properties=species:S:1:pos:R:3 atomization_energy=-1935.54 smiles=C.C.C.C.C.C.N.H.H.H.H.H.H.H.H.H.H.H.H.H pbc="F F F"
C        1.02941962      -0.03093999       0.00313000
C        2.54661889       0.00650000       0.05530998
C        3.08702867       1.14704957       0.90118966
C        4.49623818       0.67619976       1.19883956
C        4.33162837      -0.82954967       1.38709949
C        5.53468779      -1.61985930       0.89182963
N        3.08707888      -1.20055957       0.69253972
H        0.67967973      -0.87355964      -0.60348975
H        0.63729975       0.88976966      -0.44051981
H        0.59306980      -0.13339995       1.00359963
H        2.94755888       0.08438997      -0.96355965
H        2.52101913       1.26158954       1.83395922
H        3.07625867       2.10425911       0.37109986
H        5.14877791       0.90308966       0.34650986
H        4.91084821       1.16368956       2.08623913
H        4.18628834      -1.04379960       2.45285916
H        5.70719758      -1.46213940      -0.17774993
H        5.39025791      -2.69314891       1.05561961
H        6.43953758      -1.31677943       1.42861946
H        3.24573872      -1.92756920      -0.00336000
