15
Properties=species:S:1:pos:R:3 atomization_energy=-1437.64 smiles=N.N.C.C.O.C.C.H.H.H.H.H.H.H.H pbc="F F F"
N        1.23081951      -0.00825000       0.60096978
N        2.55063904       0.16760994       0.35013987
C        2.92551875       1.36882944      -0.00933000
C        1.96956923       2.56110901      -0.12196995
O        1.31209945       2.79610890       1.11274955
C        4.36213825       1.64965937      -0.30454988
C        5.16478783       0.70213973      -0.80267967
H        0.75863973      -0.30700989      -0.25965990
H        1.12649959      -0.82709966       1.21097946
H        1.22107953       2.35345906      -0.89344966
H        2.50765895       3.47007862      -0.40446985
H        1.02584957       1.90034922       1.39445949
H        4.72065807       2.65483898      -0.11458996
H        4.80745800      -0.30566989      -0.99477958
H        6.20685738       0.91379967      -1.01754957
