13
Properties=species:S:1:pos:R:3 atomization_energy=-1335.92 smiles=N.N.C.C.C.C.O.H.H.H.H.H.H pbc="F F F"
N        0.93893962      -0.17319994      -0.06776997
N        2.34956913      -0.10370996      -0.05112998
C        3.09206874       1.03435957       0.03940998
C        4.41994835       0.65854976       0.07998997
C        4.46259839      -0.75871972       0.00790999
C        3.16470885      -1.20539954      -0.08411997
O        2.67108885      -2.43713892      -0.18576993
H        0.54241979       0.62859974      -0.55473979
H        0.57621975      -0.12573995       0.88315965
H        2.63221899       2.01157923       0.07165997
H        5.26672814       1.33024951       0.15443995
H        5.34417769      -1.38870949       0.01756999
H        1.70406931      -2.32523909      -0.28620988
