16
Properties=species:S:1:pos:R:3 atomization_energy=-1523.12 smiles=N.C.C.O.C.C.O.H.H.H.H.H.H.H.H.H pbc="F F F"
N        1.03067957       0.01807999       0.23380990
C        2.47985911       0.02748999      -0.01022000
C        3.15222880       1.04010956       0.95886963
O        2.34726913       1.49248942       2.07108916
C        4.18867842      -0.06380997       1.27916946
C        3.15136885      -1.11118951       0.81244968
O        3.64902867      -2.23595899       0.05983998
H        0.58093979      -0.83298970      -0.11214996
H        0.54269981       0.78658970      -0.23030991
H        2.78260893       0.09907996      -1.05831956
H        3.59057865       1.90656931       0.45269981
H        1.50921937       0.99970963       1.94634920
H        5.09286787      -0.01323000       0.66319972
H        4.48265822      -0.14029995       2.32971898
H        2.54441907      -1.47628938       1.65321939
H        4.25597845      -1.86475928      -0.60207979
