12
Properties=species:S:1:pos:R:3 atomization_energy=-1256.3 smiles=C.N.O.C.C.C.O.H.H.H.H.H pbc="F F F"
C        1.01744959       0.05949998      -0.00857000
N        2.38599895       0.00205000       0.44335983
O        3.15665873       1.11553958       0.00171000
C        4.40615844       0.57456976      -0.16558993
C        4.51282846      -0.73699974      -0.00303000
C        3.13958877      -1.14739956       0.27041991
O        2.76854903      -2.30901899       0.28534988
H        0.57529975       1.00897958       0.30230988
H        0.45770982      -0.77443970       0.42323982
H        0.99324963      -0.02421999      -1.09906954
H        5.17613819       1.28285955      -0.41852984
H        5.35811798      -1.38893949      -0.10163996
