13
Properties=species:S:1:pos:R:3 atomization_energy=-1339.2 smiles=C.N.C.N.C.C.O.H.H.H.H.H.H pbc="F F F"
C        0.99700962      -0.01650999       0.00094000
N        2.45068911      -0.03821998       0.00863000
C        3.03427882       1.10166956       0.00768999
N        2.54706905       2.38153899       0.00135000
C        3.56436850       3.26762871       0.00350000
C        4.66822817       2.53037911       0.01144000
O        4.42739818       1.14764949       0.01476000
H        0.62384973      -1.04528961      -0.00724000
H        0.60720975       0.48134982      -0.89320963
H        0.59849977       0.47083981       0.89698968
H        1.57424942       2.63367898      -0.00480000
H        3.43387868       4.33822835      -0.00080000
H        5.70443759       2.81533881       0.01590999
