18
Properties=species:S:1:pos:R:3 atomization_energy=-1709.78 smiles=C.O.C.C.C.C.N.H.H.H.H.H.H.H.H.H.H.H pbc="F F F"
C        1.76211925       1.90588927       1.33601944
O        3.17813868       1.94763925       1.22597955
C        3.63728845       1.21103952       0.09442996
C        5.14555817       1.25526953       0.06690998
C        5.86718771       0.11975996       0.12431995
C        5.72714790       2.64364884      -0.05852998
N        7.18709719       2.68725900      -0.09017997
H        1.46673940       2.50081900       2.20438907
H        1.41987947       0.87736966       1.48519944
H        1.29460948       2.33357914       0.44394982
H        3.23910872       1.65855935      -0.82418965
H        3.27128878       0.17923993       0.15991994
H        5.39487810      -0.85334968       0.20840991
H        6.95225703       0.12952995       0.07935997
H        5.38557768       3.26458863       0.77709972
H        5.35330804       3.09993869      -0.98203963
H        7.52782715       2.38395910       0.82151967
H        7.47934725       3.65836846      -0.18264993
