17
Properties=species:S:1:pos:R:3 atomization_energy=-1591.64 smiles=N.C.C.C.N.C.O.H.H.H.H.H.H.H.H.H.H pbc="F F F"
N        1.07730963       0.13828994      -0.35513988
C        2.52838897       0.03288999      -0.13582995
C        3.35195857      -0.72580973      -1.13219950
C        3.46720860       0.78015967      -1.07127955
N        2.84050886       1.55951933      -2.18261920
C        4.72495830       1.38832948      -0.48056980
O        5.49876793       1.96121921      -1.53171936
H        0.70779971       0.94881965       0.14347994
H        0.59972977      -0.67262971       0.03906998
H        2.82773888      -0.04884998       0.90664968
H        2.84919889      -1.17630953      -1.98001927
H        4.17696823      -1.32207953      -0.75954970
H        1.82610932       1.42733939      -2.08796924
H        3.06489872       1.10440963      -3.06922872
H        5.34088779       0.65026976       0.04236998
H        4.46398823       2.18569915       0.22281992
H        4.82679818       2.37331905      -2.11138911
