19
Properties=species:S:1:pos:R:3 atomization_energy=-1739.46 smiles=N.C.C.N.C.C.O.H.H.H.H.H.H.H.H.H.H.H.H pbc="F F F"
N        1.00317962      -0.07388997      -0.10459996
C        2.47080900      -0.01606999      -0.09891996
C        2.97144885       1.44503941       0.02779999
N        2.25848915       2.13333915       1.12451955
C        4.49533837       1.49135936       0.22905991
C        5.05262810       2.91356885       0.25068990
O        4.59286844       3.62544857       1.39061951
H        0.70920974      -1.04431959      -0.21647992
H        0.65175971       0.42147984      -0.92483966
H        2.85870875      -0.46704983      -1.01911958
H        2.83432876      -0.61348977       0.74502974
H        2.72351900       1.97426928      -0.90117964
H        2.45794893       1.62956939       1.99362927
H        1.26297951       1.91725919       0.97794959
H        4.98146816       0.93769960      -0.58371979
H        4.75454818       0.98748961       1.16946958
H        4.76131822       3.46662875      -0.64809977
H        6.14518762       2.88726887       0.29323989
H        3.62295856       3.46402873       1.43144948
