14
Properties=species:S:1:pos:R:3 atomization_energy=-1442.99 smiles=N.C.C.O.C.C.C.H.H.H.H.H.H.H pbc="F F F"
N        1.05113960       0.02112999       0.77689968
C        2.37915900      -0.00873000       0.14893994
C        2.60471892       0.71724971      -1.15264956
O        3.97572851       1.14078961      -1.49274945
C        4.63550838      -0.05066998      -1.78360929
C        3.90877846      -1.15147950      -1.58166934
C        2.56702896      -0.80917966      -1.11618959
H        0.94340961       0.87032968       1.33216949
H        0.95270965      -0.75473970       1.43177941
H        3.20453883       0.00336000       0.85814965
H        1.77855926       1.24191956      -1.61604935
H        5.65163777       0.05564998      -2.11895904
H        4.24890813      -2.16419927      -1.74289930
H        1.72445931      -1.30081948      -1.58333940
