14
Properties=species:S:1:pos:R:3 atomization_energy=-1440.02 smiles=N.C.C.C.C.O.C.H.H.H.H.H.H.H pbc="F F F"
N        1.02066959       0.00239000      -0.01738999
C        2.47021904       0.11481996      -0.04855998
C        2.90487881       1.44273941       0.52440980
C        3.75179865       1.24355947       1.55092934
C        4.00440848      -0.17962992       1.82343928
O        4.51794826      -1.07197964       0.82164968
C        3.09551886      -0.92272961       0.86321968
H        0.75335970      -0.88993967      -0.42925985
H        0.62497973       0.71507972      -0.62757975
H        2.84002892       0.00044000      -1.07335963
H        2.59089899       2.40514912       0.15217994
H        4.21408843       2.03383926       2.12627918
H        4.02265834      -0.49185979       2.85963885
H        2.47661892      -1.73148926       1.21455954
