15
Properties=species:S:1:pos:R:3 atomization_energy=-1481.88 smiles=N.C.O.C.C.C.N.H.H.H.H.H.H.H.H pbc="F F F"
N        1.31451943      -0.11409995       0.71283971
C        2.10028918       0.19589993      -0.36627986
O        1.90825930      -0.37520986      -1.43911947
C        3.19289879       1.28989947      -0.08141997
C        2.88340895       2.73877898      -0.51672978
C        3.54864852       3.14030867       0.80724970
N        3.19940869       1.80217924       1.33766944
H        1.40546946       0.43827984       1.55754938
H        0.53659977      -0.74540969       0.58899976
H        4.18884824       0.95469960      -0.40381984
H        1.81545930       2.98039878      -0.57461978
H        3.38119872       3.08565876      -1.42566946
H        4.62822812       3.31597866       0.73220973
H        3.08617882       3.97838833       1.33496949
H        3.92319844       1.38147944       1.92014927
