18
Properties=species:S:1:pos:R:3 atomization_energy=-1710.8 smiles=C.N.C.C.O.C.C.H.H.H.H.H.H.H.H.H.H.H pbc="F F F"
C        0.81244968      -0.32523988       0.00667000
N        2.25571906      -0.17141993       0.12025995
C        2.65180898       1.23866954      -0.00976000
C        4.18025838       1.38387949      -0.00962999
O        4.70373825       0.77963968      -1.19829956
C        6.05719769       0.80976968      -1.37045950
C        6.99801730       1.34224950      -0.58105978
H        0.55118981      -1.38383950       0.09350997
H        0.44283981       0.03456999      -0.95870965
H        0.29616987       0.20901992       0.81011966
H        2.71842898      -0.69973974      -0.62342973
H        2.23906923       1.81376931       0.82644965
H        2.25728906       1.64764930      -0.94727961
H        4.60303839       0.90252967       0.88160964
H        4.43098834       2.45188894      -0.00181000
H        6.30993772       0.30927987      -2.29961914
H        6.77360751       1.84499922       0.35091985
H        8.04306689       1.27723950      -0.86643968
