17
Properties=species:S:1:pos:R:3 atomization_energy=-1569.11 smiles=C.N.C.N.C.C.O.H.H.H.H.H.H.H.H.H.H pbc="F F F"
C        1.04985958      -0.11285995       0.10357996
N        2.50051898      -0.27648989      -0.07470997
C        2.78780897      -1.71284930      -0.22563991
N        3.02536875       0.53392979      -1.03475957
C        4.24938857       0.88410968      -0.78861971
C        4.99706778       1.76363929      -1.76599935
O        4.12708840       2.52501908      -2.58233891
H        0.81099966       0.94026966       0.28919988
H        0.69329975      -0.67832975       0.97140961
H        0.49488982      -0.43617984      -0.78445971
H        2.41604907      -2.27891915       0.63555973
H        3.86872845      -1.88373925      -0.27261989
H        2.33926896      -2.11887906      -1.13909950
H        4.81309811       0.52834980       0.09259996
H        5.62497797       1.12795958      -2.39719917
H        5.64267800       2.44478910      -1.20475950
H        3.30131872       2.00302923      -2.64194889
