14
Properties=species:S:1:pos:R:3 atomization_energy=-1326.7 smiles=C.N.N.C.C.C.H.H.H.H.H.H.H.H pbc="F F F"
C        2.29342920      -0.39768983      -0.26766991
N        3.38573867       0.18322993       0.10079996
N        3.68574867       1.24937948      -0.67540971
C        5.14587812       1.40875948      -0.60955977
C        6.01769776       0.64616976      -1.56980940
C        5.84990756       2.12930917      -1.72666936
H        1.93620927      -1.28146946       0.28297988
H        1.68101935      -0.06404998      -1.12443956
H        3.24960873       2.09424913      -0.29462989
H        5.54342804       1.56453933       0.39176986
H        5.53232799      -0.00429000      -2.28767908
H        6.96223724       0.27062988      -1.19616951
H        6.68900740       2.76416881      -1.46909945
H        5.26308801       2.48267891      -2.56613899
