14
Properties=species:S:1:pos:R:3 atomization_energy=-1373.04 smiles=C.O.N.C.C.C.O.H.H.H.H.H.H.H pbc="F F F"
C        2.26500913      -0.65854976       1.05929961
O        3.48714858      -0.25847989       0.44933983
N        3.59430862       1.13723956       0.53831978
C        4.70989816       1.49724940      -0.00394000
C        5.10263813       2.94620891      -0.05801998
C        4.13616829       3.94894834       0.49609981
O        6.18750761       3.23035863      -0.55107979
H        2.18054907      -1.74582937       0.98389963
H        1.41592947      -0.20138991       0.54200981
H        2.26003922      -0.37619985       2.11654916
H        5.43537777       0.79818969      -0.45224981
H        3.19044866       3.89570846      -0.04894998
H        4.54977833       4.95440816       0.37620985
H        3.97589833       3.76356864       1.56103937
