15
Properties=species:S:1:pos:R:3 atomization_energy=-1468.57 smiles=C.O.C.C.C.N.N.H.H.H.H.H.H.H.H pbc="F F F"
C        4.39883832      -0.50694980      -0.83488969
O        3.20967882      -0.01524000      -0.22703990
C        3.19671883       1.30062948       0.15318994
C        4.15626824       2.22566918       0.01875999
C        3.95950840       3.61976859       0.49866980
N        2.77782901       4.09903850       0.97237963
N        4.93353784       4.47482838       0.47022980
H        4.24118831      -1.56141939      -1.07995961
H        5.24514777      -0.44308984      -0.14298994
H        4.61431811       0.02826999      -1.76535931
H        2.23880908       1.50471941       0.61938978
H        5.11580781       2.00399920      -0.42845983
H        1.94333927       3.77777842       0.49932981
H        2.81130883       5.11063805       1.05578956
H        5.79121784       4.04682839       0.11147996
