18
Properties=species:S:1:pos:R:3 atomization_energy=-1715.32 smiles=C.O.C.C.C.C.N.H.H.H.H.H.H.H.H.H.H.H pbc="F F F"
C        4.58383800      -1.10249961       0.14024994
O        3.33701880      -0.41970983       0.20157992
C        3.37343878       0.94615964       0.22036991
C        4.43651844       1.76317929       0.19721992
C        4.32655853       3.26380867       0.22029991
C        4.93096810       3.88590842      -1.04357956
N        4.86181823       5.34480801      -0.99963961
H        4.37933816      -2.17751907       0.12288995
H        5.19176809      -0.88850964       1.02563957
H        5.12535804      -0.84762964      -0.77637969
H        2.35438916       1.31940948       0.25851990
H        5.44670795       1.36684940       0.17087993
H        4.85414787       3.63442853       1.10785962
H        3.27851882       3.57367852       0.32107989
H        4.40069850       3.52725865      -1.93347930
H        5.98096741       3.58771848      -1.14456953
H        3.88627859       5.63952789      -0.96931961
H        5.24522800       5.72456756      -1.86438924
