15
Properties=species:S:1:pos:R:3 atomization_energy=-1476.05 smiles=N.C.C.C.N.C.O.H.H.H.H.H.H.H.H pbc="F F F"
N        0.87878965      -0.00644000      -0.23653991
C        2.30368899      -0.25221990      -0.02639999
C        3.11150884      -0.84980966      -1.13771950
C        3.31517877       0.59311976      -0.76495968
N        4.52000829       1.01836959      -0.13663995
C        4.56903827       1.97681921       0.83477968
O        5.61017773       2.36043905       1.34896946
H        0.52812980       0.68924970       0.42213985
H        0.33808988      -0.85370969      -0.06076998
H        2.56592905      -0.56870980       0.98150960
H        2.61827895      -1.05990962      -2.07975913
H        3.87764836      -1.56814944      -0.87176967
H        2.92861889       1.32619947      -1.47021942
H        5.41373785       0.65487973      -0.44576982
H        3.57857854       2.36996910       1.11642955
