14
Properties=species:S:1:pos:R:3 atomization_energy=-1363.55 smiles=C.O.C.C.C.N.O.H.H.H.H.H.H.H pbc="F F F"
C        1.95399925       1.34533942       2.60463893
O        1.82191923       2.19126911       1.45720947
C        2.87044897       2.20743925       0.59070974
C        2.58388898       3.11839874      -0.55113979
C        1.44952940       3.81417847      -0.70884973
N        3.93440850       1.50034942       0.80050969
O        4.88659817       1.66881939      -0.21348992
H        1.07552956       1.49846942       3.23682866
H        2.84382878       1.61048936       3.18372882
H        1.98241920       0.29556989       2.29865902
H        3.37053873       3.20001882      -1.29261947
H        0.63419973       3.76342860       0.00583000
H        1.31524943       4.45714803      -1.57203938
H        5.61299779       1.09074955       0.08547997
