16
Properties=species:S:1:pos:R:3 atomization_energy=-1560.72 smiles=N.C.C.C.O.C.C.H.H.H.H.H.H.H.H.H pbc="F F F"
N        1.02267960      -0.00604000       0.18397993
C        2.46999901       0.00000000       0.00000000
C        2.87202881      -0.74607969      -1.27973948
C        2.26711913      -0.18309994      -2.56372897
O        2.73144902      -0.94448965      -3.67743865
C        2.95201883       1.36116943       0.00000000
C        3.34929875       2.48306901       0.00000000
H        0.79897967       0.45278983       1.06615961
H        0.69519974      -0.96654964       0.26827989
H        2.91724884      -0.53186982       0.84881964
H        2.58866889      -1.80413934      -1.19443953
H        3.96663853      -0.75037973      -1.37697949
H        2.54605897       0.86166967      -2.72842886
H        1.17539950      -0.25066991      -2.55261908
H        3.67996852      -0.75459971      -3.78018844
H        3.69621865       3.49062873      -0.00149000
