16
Properties=species:S:1:pos:R:3 atomization_energy=-1498.19 smiles=C.O.C.C.C.N.O.H.H.H.H.H.H.H.H.H pbc="F F F"
C        2.70920905      -0.84788967      -0.71868970
O        2.48133903       0.04094999       0.36944987
C        2.95463879       1.35939945       0.10717995
C        2.40917911       2.27268909       1.19519955
C        4.46991801       1.41400948       0.14657994
N        5.14966814       1.81628934      -0.87913964
O        6.51282719       1.76026928      -0.56719979
H        2.24178911      -1.80700923      -0.47884982
H        3.78013848      -1.01456960      -0.86505968
H        2.25666908      -0.46156982      -1.63759933
H        2.59100901       1.70474934      -0.86825968
H        2.72783891       1.93672920       2.18879904
H        1.31394954       2.26020904       1.19280959
H        2.74966884       3.30428866       1.05841961
H        4.95878812       1.09166955       1.08288956
H        6.93110713       2.07631923      -1.38937943
