15
Properties=species:S:1:pos:R:3 atomization_energy=-1464.66 smiles=C.O.C.C.C.N.N.H.H.H.H.H.H.H.H pbc="F F F"
C        1.95298917      -0.31618986      -1.20696954
O        3.19817882       0.19295992      -0.74811972
C        3.22191865       1.48244941      -0.25617989
C        2.17356908       2.31437901      -0.14370994
C        4.58699820       1.97661924       0.16966994
N        4.81949824       3.15862867       0.81045967
N        5.64381803       1.25021950      -0.04981998
H        2.12072915      -1.33192953      -1.57711943
H        1.56428940       0.28335990      -2.03662916
H        1.22750956      -0.37164984      -0.38886985
H        1.16950958       2.03248916      -0.43460984
H        2.28523904       3.32865881       0.22367991
H        4.15351834       3.39102879       1.53505935
H        5.77527756       3.17471883       1.15409958
H        5.33455781       0.39162984      -0.52896981
