16
Properties=species:S:1:pos:R:3 atomization_energy=-1553.33 smiles=C.O.C.C.C.C.N.H.H.H.H.H.H.H.H.H pbc="F F F"
C        1.00269963      -0.06225998      -0.07611997
O        2.42216912      -0.00377000      -0.10591996
C        2.89400889       1.33854944       0.00000000
C        4.33800832       1.33854944       0.00000000
C        5.52816805       1.33854944       0.00000000
C        6.97216748       1.33854944       0.00000000
N        7.47090728       2.69892881      -0.13914995
H        0.69969975      -1.10919951      -0.16166993
H        0.57859980       0.49373982      -0.91778966
H        0.62214977       0.33485985       0.86861963
H        2.51564902       1.78448930       0.92682961
H        2.51304899       1.92240927      -0.84540970
H        7.35551720       0.72614974      -0.82305964
H        7.35575692       0.91048965       0.93159962
H        7.12419706       3.08551872      -1.01519962
H        8.48517648       2.67249888      -0.21930991
