19
Properties=species:S:1:pos:R:3 atomization_energy=-1739.3 smiles=N.C.C.C.O.C.N.H.H.H.H.H.H.H.H.H.H.H.H pbc="F F F"
N        1.14931954       0.08392996      -0.93404963
C        2.58784906       0.09932996      -0.67152974
C        3.04211875       1.51311939      -0.31166989
C        4.52641801       1.55168937       0.05103998
O        5.31013770       1.15748953      -1.08058956
C        4.96554807       2.96327886       0.48129983
N        6.42036747       2.98656878       0.69681971
H        0.87481966      -0.85942966      -1.20646955
H        0.95232964       0.67420975      -1.74244927
H        3.11912874      -0.26610990      -1.55708938
H        2.80207880      -0.58725974       0.15452993
H        2.45145897       1.88887925       0.53283978
H        2.85513877       2.17500914      -1.16709956
H        4.73499805       0.83872967       0.85822964
H        6.18781747       1.56598935      -0.92179964
H        4.44454812       3.27279873       1.39268951
H        4.73563797       3.68378856      -0.31099988
H        6.64933739       2.40050900       1.50152945
H        6.69689730       3.93386852       0.95992961
