17
Properties=species:S:1:pos:R:3 atomization_energy=-1584.42 smiles=N.C.C.N.C.O.C.H.H.H.H.H.H.H.H.H.H pbc="F F F"
N        1.92543926      -0.62507978      -1.27157946
C        2.21245913      -0.03559999       0.04329998
C        3.02913883       1.23833949      -0.09117996
N        4.25317808       1.09109953      -0.92152965
C        2.30712903       2.54781898      -0.47672982
O        3.01996886       3.27592864       0.56625979
C        3.38306875       2.01260924       1.19540949
H        1.37804950      -1.47531941      -1.13642958
H        2.81434892      -0.93840966      -1.66630932
H        2.75482902      -0.77235967       0.64705973
H        1.26527951       0.16608994       0.55532981
H        4.81157807       1.94796929      -0.94621963
H        4.02061849       0.90453961      -1.89813930
H        1.22763951       2.57183890      -0.29270987
H        2.51124912       2.95484873      -1.47176937
H        4.43014809       1.99919923       1.51347935
H        2.74195886       1.81620923       2.06183920
