14
Properties=species:S:1:pos:R:3 atomization_energy=-1479.66 smiles=N.C.O.C.C.C.C.H.H.H.H.H.H.H pbc="F F F"
N        2.71853899      -1.33229945      -1.05537958
C        3.04109883      -0.48471980      -0.04281998
O        2.98508886      -0.82714968       1.12939950
C        3.45966869       0.85921966      -0.49813982
C        3.85141852       1.77373935       0.40058984
C        4.27507841       3.10418871       0.03215999
C        4.68039811       4.01052852       0.92918960
H        2.76732900      -1.09115959      -2.03374918
H        2.43303904      -2.26868914      -0.80055971
H        3.43893867       1.07075961      -1.55872940
H        3.85884842       1.52002936       1.46060939
H        4.26219842       3.37469867      -1.02147957
H        4.71472828       3.79542849       1.99286924
H        4.99194798       5.00074778       0.61199975
