15
Properties=species:S:1:pos:R:3 atomization_energy=-1477.58 smiles=O.C.C.C.C.N.N.H.H.H.H.H.H.H.H pbc="F F F"
O        1.36729943       0.17297994       0.87299966
C        2.40956896       0.06651998       0.22815991
C        3.05419886      -1.27645955      -0.03288999
C        3.99499854      -1.26046945      -1.22551955
C        4.91048788      -0.05067998      -1.14087957
N        4.09470850       1.16262951      -1.17981958
N        3.09901869       1.18856955      -0.18137994
H        2.26598919      -2.01879918      -0.19742992
H        3.60163859      -1.55666937       0.87462966
H        4.58626795      -2.18259926      -1.24581947
H        3.41603860      -1.22809951      -2.15739919
H        5.51491763      -0.07976997      -0.22628991
H        5.59894798      -0.04696998      -1.99233922
H        4.70761809       1.97227927      -1.04955956
H        2.58405905       2.05422914      -0.02909999
