13
Properties=species:S:1:pos:R:3 atomization_energy=-1352.8 smiles=N.C.C.O.C.C.N.H.H.H.H.H.H pbc="F F F"
N        0.97786960      -0.05368998       0.08519996
C        2.31645897       0.04964998       0.03730998
C        3.14328870       1.14459956       0.01136000
O        2.69364903       2.40875897       0.01645999
C        4.48086818       0.70006973      -0.02063999
C        4.43646848      -0.67916970      -0.01722000
N        3.11600866      -1.06186960       0.01564999
H        0.42705984       0.79705969      -0.02428999
H        0.46935983      -0.90816965      -0.10911996
H        3.44715862       3.02086893       0.00916000
H        5.37982806       1.30112947      -0.04191998
H        5.22388785      -1.42071948      -0.03179999
H        2.78044897      -2.01264924       0.03618999
