14
Properties=species:S:1:pos:R:3 atomization_energy=-1472.88 smiles=N.C.O.C.C.C.C.H.H.H.H.H.H.H pbc="F F F"
N        2.71683904      -0.96604965      -0.46381983
C        2.18094927       0.15265994       0.09943996
O        1.05865957       0.13388995       0.59062975
C        3.04031888       1.38523943       0.02884999
C        2.40433914       2.56460910       0.13043994
C        4.48958824       1.27879954      -0.01437999
C        5.30366793       2.06793918      -0.72827974
H        3.57388871      -0.95364965      -0.99706961
H        2.13504920      -1.79216925      -0.49245981
H        1.32159946       2.61742885       0.21167992
H        2.93928872       3.50760861       0.15097994
H        4.92117815       0.47845980       0.58486979
H        4.92892825       2.87504897      -1.35062942
H        6.37893771       1.91891928      -0.70314975
