11
Properties=species:S:1:pos:R:3 atomization_energy=-1226.76 smiles=N.C.O.C.C.C.N.H.H.H.H pbc="F F F"
N        1.30665944      -0.13602995      -0.84877965
C        2.53920893      -0.12743995      -0.27965990
O        3.02887893      -1.12193959       0.23364991
C        3.22154873       1.17834950      -0.33938986
C        4.44497810       1.29471950       0.19424992
C        5.15259821       2.52405897       0.16818993
N        5.71616796       3.53605870       0.13796995
H        0.87072969       0.66500976      -1.28162944
H        0.79481968      -1.00936963      -0.83462966
H        2.71597884       2.01163916      -0.81374969
H        4.93816812       0.45053983       0.66592975
