17
Properties=species:S:1:pos:R:3 atomization_energy=-1575.22 smiles=C.O.C.C.N.C.N.H.H.H.H.H.H.H.H.H.H pbc="F F F"
C        2.24777920      -0.73436969      -1.13589956
O        1.88881932       0.52653979      -0.58699978
C        3.03454882       1.27356948      -0.11341996
C        3.52441866       2.39522897      -0.99822958
N        2.90568879       2.61917902      -2.31560912
C        2.75002892       2.70875888       0.25935990
N        3.42152857       3.32461873       1.41206943
H        1.34222944      -1.22036947      -1.50825937
H        2.69627883      -1.36763945      -0.36476984
H        2.94582889      -0.60384977      -1.96814924
H        3.77204848       0.74640974       0.48413981
H        4.59162798       2.60440906      -0.97700959
H        1.92079927       2.35007908      -2.26876912
H        3.31791859       1.99435926      -3.00649892
H        1.72681937       3.05151885       0.12391995
H        4.37173844       2.97853885       1.52823934
H        2.92373881       3.09686883       2.27183898
