14
Properties=species:S:1:pos:R:3 atomization_energy=-1343.02 smiles=C.N.O.C.C.O.C.H.H.H.H.H.H.H pbc="F F F"
C        1.41198944       2.46006902       0.58465978
N        2.65514884       2.46030899       0.24070991
O        3.12002880       1.13778952       0.24086990
C        4.50439807       1.14769958      -0.17316992
C        5.54440759       1.59077938       0.86034966
O        6.32285759       0.38335984       0.66003971
C        5.23701816      -0.19504992      -0.10515996
H        0.85770965       3.40965866       0.64232972
H        0.85633968       1.53922937       0.83012965
H        4.62562810       1.63337933      -1.14981954
H        5.19094802       1.66630932       1.89320925
H        6.11082767       2.48774900       0.59558977
H        5.58066759      -0.58642977      -1.06661961
H        4.73231830      -0.98626958       0.45752981
