18
Properties=species:S:1:pos:R:3 atomization_energy=-1707.16 smiles=N.C.C.O.C.C.C.H.H.H.H.H.H.H.H.H.H.H pbc="F F F"
N        1.40647941      -0.66979976      -0.49334981
C        2.37073896      -0.14599994       0.47919980
C        2.65512890       1.34140949       0.24582991
O        3.28628861       1.50146939      -1.02889963
C        3.62983862       2.87097886      -1.31218953
C        5.09743809       3.19143881      -1.28685951
C        4.37715852       3.07810876      -2.59911893
H        1.42522939      -1.68796931      -0.46911983
H        1.73005930      -0.40147985      -1.42609943
H        3.30346858      -0.71374975       0.38130984
H        1.97786916      -0.29722988       1.48858939
H        3.32687862       1.71393937       1.02761961
H        1.72504926       1.92137925       0.27029989
H        2.92968878       3.65129864      -1.03150961
H        5.78829786       2.40090895      -1.02031960
H        5.39468785       4.17782843      -0.95383965
H        4.18065833       3.98661837      -3.15478870
H        4.57290802       2.20975919      -3.21663862
