13
Properties=species:S:1:pos:R:3 atomization_energy=-1319.09 smiles=C.N.N.C.C.C.O.H.H.H.H.H.H pbc="F F F"
C        2.13160917       0.61911978      -0.13983995
N        3.32671864       0.56578976      -0.62389976
N        4.29690810       1.03879959       0.19092993
C        5.61519761       1.04738957      -0.17985992
C        6.64995762       1.50112937       0.53370981
C        8.01132664       1.43261942      -0.02447999
O        8.97712655       1.84111924       0.60848976
H        1.28538955       0.25400991      -0.74306969
H        1.89355923       1.01448962       0.86153966
H        4.08179848       1.42587940       1.10976952
H        5.75548773       0.62376974      -1.17328950
H        6.55014749       1.92856918       1.52279946
H        8.11014663       0.99754961      -1.03286961
