16
Properties=species:S:1:pos:R:3 atomization_energy=-1640.74 smiles=C.C.C.C.C.C.N.H.H.H.H.H.H.H.H.H pbc="F F F"
C        1.20996951      -0.25153990       0.00379000
C        2.65747887       0.22946990      -0.02169999
C        2.87335885       1.51696946       0.72851970
C        3.83900837       1.33311953       1.63438942
C        4.35105838      -0.03020998       1.61654935
C        3.42943865      -1.16960950       1.92850925
N        3.62755856      -0.76559972       0.53773980
H        1.11556961      -1.22746956      -0.48412981
H        0.56640980       0.45195982      -0.53602981
H        0.81372970      -0.33822986       1.02034957
H        2.94274894       0.39699983      -1.06814963
H        2.34397898       2.43762895       0.53959980
H        4.21008823       2.09373917       2.30748910
H        5.42314778      -0.17875993       1.63805932
H        3.87641850      -2.11683921       2.20598911
H        2.48321890      -0.96749961       2.41325905
