15
Properties=species:S:1:pos:R:3 atomization_energy=-1480.26 smiles=C.N.C.N.C.C.O.H.H.H.H.H.H.H.H pbc="F F F"
C        1.14344956      -0.00598000       0.28321989
N        2.54804911       0.08209996      -0.08248997
C        3.01535877       1.24666945      -0.30701989
N        2.44132913       2.48200897      -0.22785990
C        3.45923872       3.49642857      -0.20590993
C        4.61671828       2.75979894      -0.85363967
O        4.33225819       1.36818940      -0.65018977
H        0.83714970      -1.05654958       0.27490989
H        0.49941980       0.52640978      -0.42475984
H        0.97650960       0.37967985       1.29409952
H        1.66617937       2.57075892       0.41449982
H        3.17478873       4.39677828      -0.75597972
H        3.69782852       3.76714846       0.82768967
H        4.67563813       2.94693890      -1.93135921
H        5.57613774       3.01458891      -0.39297985
