17
Properties=species:S:1:pos:R:3 atomization_energy=-1572.16 smiles=C.N.C.C.C.N.O.H.H.H.H.H.H.H.H.H.H pbc="F F F"
C        0.98318963      -0.10068996       0.11130996
N        2.43502893      -0.00622000       0.14627995
C        3.15534887      -1.19822954      -0.29068990
C        3.09857888       1.22194956       0.17004993
C        2.32716918       2.47437898       0.57194980
N        4.35955841       1.29682949      -0.17462993
O        4.84864805       2.60683901      -0.13551994
H        0.57104980       0.55430976      -0.66358976
H        0.55837980       0.17774993       1.08069957
H        0.64228972      -1.11873952      -0.10619996
H        2.63102900      -2.11164914       0.01046000
H        4.15195842      -1.24835956       0.16103994
H        3.25908881      -1.20207949      -1.38047945
H        1.40820939       2.23656913       1.10977962
H        2.07599914       3.04078872      -0.32944987
H        2.93193881       3.10026874       1.23470945
H        5.77888792       2.48555902      -0.39871985
