18
Properties=species:S:1:pos:R:3 atomization_energy=-1776.26 smiles=C.C.C.C.C.C.N.H.H.H.H.H.H.H.H.H.H.H pbc="F F F"
C        1.06975963      -0.08677997      -0.00830999
C        2.55462890       0.12210995      -0.05701998
C        3.45792862      -0.59102976      -1.10754951
C        4.48118813      -0.28954990       0.02559999
C        4.57355803       1.23131951       0.11318996
C        3.07914887       1.55338945       0.05408998
N        3.34780874      -0.67708973       0.97353960
H        0.63847977       0.32562986       0.91039963
H        0.80959967      -1.15022958      -0.05137998
H        0.58024979       0.40499984      -0.85562968
H        3.61039852      -0.08101997      -2.06311915
H        3.24553862      -1.65014940      -1.29702947
H        5.39103813      -0.88709968       0.08155997
H        5.03010804       1.56836934       1.04918958
H        5.12166795       1.66342934      -0.72972970
H        2.82453881       2.16230905      -0.81913968
H        2.73597887       2.06143913       0.96135963
H        3.13566880      -1.67563940       0.98083960
