16
Properties=species:S:1:pos:R:3 atomization_energy=-1528.06 smiles=N.C.C.O.C.C.O.H.H.H.H.H.H.H.H.H pbc="F F F"
N        2.02397917      -0.39591985      -1.26457954
C        2.49072903       0.21636992      -0.01199999
C        3.35507865       1.48541936      -0.19274992
O        2.56299897       2.58219886      -0.67592970
C        2.98711887       3.69652852       0.10470996
C        3.32911881       3.07315878       1.42895948
O        3.95694850       1.84362931       1.06597958
H        1.52981943      -1.26079949      -1.05150958
H        2.82387897      -0.64832977      -1.84255930
H        3.06249879      -0.53002982       0.55116981
H        1.61139939       0.46449983       0.59328977
H        4.16673848       1.29714945      -0.90492965
H        3.86866839       4.13477845      -0.37615986
H        2.19697911       4.44863841       0.16917994
H        3.99937851       3.68494853       2.03687922
H        2.42955914       2.83599894       2.00648920
