18
Properties=species:S:1:pos:R:3 atomization_energy=-1713.47 smiles=C.N.C.C.O.C.C.H.H.H.H.H.H.H.H.H.H.H pbc="F F F"
C        1.10837956       0.12366996       1.04715958
N        2.56462904       0.22348990       1.07876962
C        3.05615872       1.47388946       0.46097981
C        2.66321890       2.72002901       1.29447953
O        2.91098876       2.50001911       2.68700894
C        4.56078805       1.36479946       0.38712986
C        5.27782769       1.40421941      -0.74376972
H        0.80945968      -0.87334964       1.38702946
H        0.71165975       0.26619989       0.03726998
H        0.64176973       0.84510968       1.72467935
H        2.94640875      -0.55435979       0.53656980
H        2.65224905       1.58050938      -0.55421980
H        1.59625939       2.93882872       1.18003949
H        3.22227873       3.60812855       0.98118959
H        2.82609897       1.53049934       2.80022897
H        5.08550787       1.25890953       1.33629953
H        4.81203832       1.51630937      -1.71725929
H        6.36096768       1.32724942      -0.71204972
