10
Properties=species:S:1:pos:R:3 atomization_energy=-1018.95 smiles=C.C.C.C.H.H.H.H.H.H pbc="F F F"
C        0.92945966      -0.14963994       0.22998991
C        2.14218917       0.09781997      -0.27768989
C        2.75782899       1.40093948      -0.23526991
C        3.97041845       1.65002929      -0.74245968
H        0.50363982      -1.14670956       0.17623993
H        0.33304988       0.62163975       0.70726975
H        2.69599900      -0.71260971      -0.74489972
H        2.20319908       2.21245913       0.23260992
H        4.56716799       0.87931967      -1.21975958
H        4.39551814       2.64738889      -0.68829974
