18
Properties=species:S:1:pos:R:3 atomization_energy=-1706.94 smiles=C.N.C.C.O.C.C.H.H.H.H.H.H.H.H.H.H.H pbc="F F F"
C        2.15327913      -0.49332981      -1.42971950
N        2.25300902       0.03318999      -0.07267997
C        3.18587868       1.17238956      -0.05744997
C        2.46779894       2.48115912      -0.42644982
O        2.93764882       3.11244877       0.79862969
C        3.23176865       1.79546924       1.35621944
C        4.57758827       1.79253930       2.05137918
H        1.44026947      -1.32333941      -1.44572941
H        3.11822868      -0.87086967      -1.78365925
H        1.78858930       0.26563990      -2.12956907
H        2.53173892      -0.72543968       0.55005981
H        4.16017837       1.01499958      -0.53100981
H        1.37314948       2.46837905      -0.46114982
H        2.85864895       2.98623873      -1.31404946
H        2.42403914       1.49351944       2.03670915
H        5.36879765       2.17968912       1.40093948
H        4.85240829       0.77584967       2.35172908
H        4.54776826       2.41264916       2.95300873
