17
Properties=species:S:1:pos:R:3 atomization_energy=-1620.3 smiles=C.N.C.C.C.N.O.H.H.H.H.H.H.H.H.H.H pbc="F F F"
C        1.39671949      -0.38604985       0.22853990
N        2.54081906      -0.28782988      -0.68498972
C        2.30587898      -1.15072957      -1.84997923
C        2.70545889       1.13075957      -1.10911952
C        4.03995842       1.35535950      -1.82306923
N        5.08245820       0.60766975      -1.35056949
O        4.20256825       2.18722904      -2.70975887
H        1.56334934       0.22520990       1.12213956
H        1.26893945      -1.41778940       0.57452976
H        0.46125980      -0.06112998      -0.24294991
H        2.17313911      -2.19064913      -1.53108942
H        3.16601870      -1.14530950      -2.52745913
H        1.41846944      -0.84949967      -2.41783911
H        2.71881883       1.78777932      -0.23019991
H        1.88701931       1.44755944      -1.76708929
H        4.85866813      -0.20130992      -0.78108970
H        5.96171756       0.64963975      -1.84321927
