14
Properties=species:S:1:pos:R:3 atomization_energy=-1440.12 smiles=N.C.C.O.C.C.C.H.H.H.H.H.H.H pbc="F F F"
N        1.15652953       3.25220875       0.64810974
C        2.26993919       2.96663891       0.81110968
C        3.67687847       2.61971901       1.05799960
O        4.25865821       2.02184924      -0.10431995
C        5.63748754       1.65064939       0.08592997
C        6.42023727       1.47236941      -1.18375948
C        6.65966733       2.67464900      -0.31711986
H        3.74464859       1.91425923       1.89420924
H        4.24211840       3.52145857       1.31712942
H        5.88022769       0.97365964       0.90017965
H        5.90278762       1.61692936      -2.12517927
H        7.17945711       0.70017975      -1.20720951
H        7.58506698       2.71772901       0.24446991
H        6.31417739       3.63415853      -0.68376970
