16
Properties=species:S:1:pos:R:3 atomization_energy=-1565.74 smiles=N.C.C.C.C.C.O.H.H.H.H.H.H.H.H.H pbc="F F F"
N        0.99571958      -0.02392999      -0.09540997
C        2.45287909      -0.09983996      -0.04576998
C        3.17642863      -0.79425969      -1.15564953
C        3.26932867       0.70838972      -1.03078959
C        4.54265805       1.43009938      -0.61445973
C        5.92525771       1.03785959      -1.07618953
O        5.21427806       2.11600917      -1.68717939
H        0.65400975       0.77165970       0.44316983
H        0.57356976      -0.85294967       0.32183987
H        2.86809876      -0.22090991       0.95256961
H        2.60013885      -1.19025953      -1.98424923
H        4.04138838      -1.39209943      -0.89621962
H        2.68706899       1.26663945      -1.76594926
H        4.47952830       1.97567918       0.32319988
H        6.04589779       0.13009994      -1.65284934
H        6.76690711       1.28771945      -0.44321982
