15
Properties=species:S:1:pos:R:3 atomization_energy=-1466.33 smiles=C.N.C.C.O.N.C.H.H.H.H.H.H.H.H pbc="F F F"
C        2.05576925      -0.54399976       0.54458977
N        1.95479927       0.89319966       0.44834981
C        3.06909877       1.68470932       0.24702990
C        2.79183895       3.08990878      -0.29214988
O        1.80484928       3.29057875      -0.98657963
N        4.26603840       1.26421946       0.49309981
C        5.41112773       2.11688917       0.22682990
H        1.06801955      -0.96918960       0.74398969
H        2.72064898      -0.83964967       1.36154943
H        2.42825913      -0.96786959      -0.39270986
H        1.12740950       1.23125958      -0.04199998
H        3.49601853       3.87279855       0.02334999
H        6.32751764       1.53513933       0.36782986
H        5.45065794       2.95977877       0.92359965
H        5.41710798       2.48258908      -0.80488971
