15
Properties=species:S:1:pos:R:3 atomization_energy=-1475.08 smiles=N.C.O.C.N.C.C.H.H.H.H.H.H.H.H pbc="F F F"
N        2.51436894      -0.98141959       0.94934961
C        2.19683907      -0.11047995      -0.05554997
O        1.18131956      -0.26541990      -0.72869974
C        3.13285884       1.08889958      -0.21242991
N        4.49512843       0.72784970       0.23702990
C        5.45774795       0.60310974      -0.85623969
C        5.45466800       1.81323929       0.03783999
H        3.45662861      -0.94264964       1.32284952
H        1.97378921      -1.83103924       1.03393956
H        2.73592891       1.89310920       0.41793982
H        3.09284869       1.41412947      -1.25904945
H        5.11695793       0.71330974      -1.87935929
H        6.24388749      -0.13007995      -0.71506969
H        6.23362770       1.89536921       0.78573966
H        5.09790793       2.75401904      -0.36267985
