14
Properties=species:S:1:pos:R:3 atomization_energy=-1430.64 smiles=N.C.O.C.C.C.O.H.H.H.H.H.H.H pbc="F F F"
N        1.76640926      -1.70210932       0.21092991
C        2.25437918      -0.64439971       0.91661966
O        1.86376926      -0.39157985       2.04987920
C        3.33561861       0.14664994       0.21819992
C        4.71071823      -0.36997985       0.60847973
C        5.03634819      -1.70521931      -0.01698999
O        4.31171843      -2.29089908      -0.81789966
H        2.34324899      -2.11552911      -0.52123979
H        1.12945956      -2.32017910       0.69493971
H        3.22540865       1.19409951       0.52149979
H        3.18220878       0.11082996      -0.86664968
H        4.79792795      -0.47960981       1.69413932
H        5.47921781       0.33456986       0.27306989
H        6.00377765      -2.14168905       0.28695988
