16
Properties=species:S:1:pos:R:3 atomization_energy=-1566.27 smiles=N.C.C.C.C.C.O.H.H.H.H.H.H.H.H.H pbc="F F F"
N        1.01447959      -0.01231000       0.02604999
C        2.46999901       0.00000000       0.00000000
C        2.95201883       1.36116943       0.00000000
C        3.34929875       2.48306901       0.00000000
C        3.83131857       3.84423844       0.00000000
C        2.68487901       4.85188798      -0.02893999
O        3.19094878       6.18282737       0.01141999
H        0.68972970      -0.97259960      -0.05827998
H        0.66833971       0.48114982      -0.79541966
H        2.82172885      -0.53138982      -0.89060967
H        2.84784892      -0.54082978       0.87354968
H        4.48832810       4.02210851      -0.85971966
H        4.45220840       4.02947834       0.88479968
H        2.00621921       4.71413833       0.81985970
H        2.09689911       4.74394824      -0.94658961
H        3.59277848       6.31438733       0.88776968
