15
Properties=species:S:1:pos:R:3 atomization_energy=-1455.76 smiles=C.N.C.N.C.C.O.H.H.H.H.H.H.H.H pbc="F F F"
C        0.92144966       1.06268956       0.44152983
N        2.13870927       0.64389972      -0.20925992
C        3.17577887       1.48645946      -0.48201982
N        3.13966876       2.75937880      -0.64811977
C        4.50047835       0.83928966      -0.60507976
C        5.45030771       0.84646968       0.56269978
O        4.69133818      -0.32229988       0.23024991
H        0.24040990       0.21160991       0.53467978
H        0.41026984       1.83855922      -0.13560995
H        1.13328957       1.44387945       1.44563946
H        2.44923896      -0.28734988       0.06893997
H        2.17319916       3.07886878      -0.57140974
H        4.92116805       0.81266966      -1.60222942
H        5.16774818       1.40087942       1.44910939
H        6.51191729       0.83591964       0.35371985
