17
Properties=species:S:1:pos:R:3 atomization_energy=-1568.06 smiles=C.N.C.C.N.C.O.H.H.H.H.H.H.H.H.H.H pbc="F F F"
C        1.04615959       0.02293999      -0.50382979
N        2.48798897       0.20510992      -0.48043982
C        2.98805880       1.31460951      -0.02981999
C        2.11204921       2.43638899       0.51322979
N        4.36831835       1.51864936      -0.03048999
C        5.23830807       0.63768972      -0.79820968
O        4.74056801       2.86270896      -0.16966994
H        0.81264966      -0.87685963      -1.08209963
H        0.53038977       0.85753964      -0.98976961
H        0.64954973      -0.12669995       0.50528981
H        1.28720949       2.03699921       1.10806957
H        1.71041935       3.01261871      -0.32494986
H        2.68391889       3.10420890       1.16322956
H        5.09877797      -0.40600986      -0.49895980
H        6.28768766       0.89350965      -0.61821978
H        5.03818819       0.73228972      -1.87045931
H        5.16065817       3.05596871       0.68930976
