13
Properties=species:S:1:pos:R:3 atomization_energy=-1342.73 smiles=N.N.C.C.C.C.O.H.H.H.H.H.H pbc="F F F"
N        1.12858952      -0.09106996      -0.19784992
N        2.48388909      -0.05198998       0.07597997
C        3.25340884      -1.16660953       0.14950994
C        4.51669821      -0.81983964       0.41218982
C        4.65219807       0.68007973       0.52546978
C        3.21416880       1.12636951       0.27828990
O        2.79454899       2.27249908       0.26402990
H        0.87961963       0.82911969      -0.57665975
H        0.63937978      -0.13348995       0.69777970
H        2.84038900      -2.15457913       0.00419000
H        5.33972808      -1.51046941       0.52304980
H        4.97425805       0.97729959       1.52586944
H        5.31158810       1.07969958      -0.24814991
