15
Properties=species:S:1:pos:R:3 atomization_energy=-1474.93 smiles=C.N.C.O.N.C.C.H.H.H.H.H.H.H.H pbc="F F F"
C        1.19986957       0.50203981      -0.56993979
N        2.48204909       0.61207974       0.07133997
C        3.62594869       0.14082994      -0.53231979
O        3.67175867      -0.28986988      -1.67873929
N        4.71286810       0.23005992       0.34101986
C        5.71868774      -0.79474972       0.34803987
C        6.01594759       0.56517975      -0.16197994
H        0.84439968      -0.52725979      -0.46859980
H        1.28159954       0.75439968      -1.63069933
H        0.50345981       1.18389952      -0.07585997
H        2.53235890       0.70036975       1.07591954
H        5.56604802      -1.60076930      -0.35778986
H        6.04213755      -1.07127955       1.34115943
H        6.55165744       1.26325947       0.46557981
H        6.07492750       0.72671969      -1.23110957
