18
Properties=species:S:1:pos:R:3 atomization_energy=-1655.68 smiles=C.O.C.C.N.C.O.H.H.H.H.H.H.H.H.H.H.H pbc="F F F"
C        1.11886960      -0.23379991       0.28115988
O        2.51386907       0.01645999       0.38315984
C        2.86774877       1.40728940       0.20344991
C        2.37243917       2.29441910       1.36512951
N        2.85056880       1.84435930       2.67385895
C        4.39471825       1.46445946       0.06241998
O        4.79258812       0.71348972      -1.08976962
H        0.97202965      -1.31474943       0.20423992
H        0.69410973       0.23910990      -0.60869976
H        0.60148978       0.11313996       1.18053948
H        2.42220898       1.74875932      -0.73947971
H        1.27702944       2.29358919       1.38431943
H        2.69102883       3.33020863       1.20521950
H        2.68394892       0.83904969       2.75324892
H        2.30798897       2.29063918       3.41117870
H        4.89973807       1.01940957       0.92594961
H        4.74618794       2.49257913      -0.06656997
H        4.36244811      -0.15747994      -0.97817959
