13
Properties=species:S:1:pos:R:3 atomization_energy=-1370.22 smiles=N.C.O.C.C.C.N.H.H.H.H.H.H pbc="F F F"
N        1.31581944      -0.51578979      -0.35040986
C        2.66272887      -0.59801978      -0.54031976
O        3.16236873      -1.53687941      -1.14608958
C        3.44693858       0.54491976       0.05278998
C        4.93710782       0.37917985      -0.21453992
C        5.68971759       1.49832938       0.36096986
N        6.26823746       2.39218914       0.82261971
H        0.86480968       0.24717990       0.13538995
H        0.73867969      -1.25586945      -0.73040973
H        3.25267884       0.57678976       1.13189960
H        3.08119881       1.48196935      -0.38468985
H        5.12469794       0.32683988      -1.29382953
H        5.29608789      -0.56430978       0.21436991
