16
Properties=species:S:1:pos:R:3 atomization_energy=-1579.98 smiles=O.C.C.C.N.C.C.H.H.H.H.H.H.H.H.H pbc="F F F"
O        0.73861970       0.01271000      -0.02388999
C        2.15082924       0.03347999       0.21126991
C        2.99708873      -0.83845967      -0.67331972
C        2.51488900      -1.42899947      -1.95753921
N        2.78814886      -0.36447985      -2.94355892
C        2.56591895       0.91655967      -2.24838909
C        3.02282878       0.64056977      -0.85337964
H        0.32378986       0.85124965       0.24063990
H        2.47748896       0.14283995       1.24173953
H        3.86615845      -1.33026944      -0.26114990
H        3.06167872      -2.33982914      -2.21935913
H        1.44570948      -1.66244929      -1.93093921
H        3.77822858      -0.41747983      -3.18028879
H        3.15046878       1.71251938      -2.71952889
H        1.50795935       1.19569954      -2.28654914
H        3.91447838       1.18054957      -0.56849980
