15
Properties=species:S:1:pos:R:3 atomization_energy=-1434.72 smiles=N.C.C.C.C.N.O.H.H.H.H.H.H.H.H pbc="F F F"
N        1.45585938      -0.31941986      -0.91106963
C        2.07456919       0.16640994       0.32751989
C        2.84018890       1.46525947       0.04130998
C        2.11972916       2.77921886       0.13989994
C        0.79712971       2.91976888       0.28135989
N        4.09570849       1.32683950      -0.27978988
O        4.72480791       2.55293903      -0.52789979
H        1.10661955      -1.26332949      -0.75569969
H        2.19148915      -0.40671985      -1.61510942
H        2.78036898      -0.58328975       0.70305973
H        1.31815943       0.31939987       1.10171953
H        2.74277894       3.66593865       0.07354997
H        0.11275996       2.07917915       0.31981987
H        0.35699987       3.91138858       0.33331988
H        5.62925801       2.27884900      -0.76764972
