12
Properties=species:S:1:pos:R:3 atomization_energy=-1283.59 smiles=N.C.C.C.O.C.O.H.H.H.H.H pbc="F F F"
N        0.98046962      -0.13547995       0.51298979
C        2.29616902      -0.01882999       0.12789995
C        3.03248878       1.09695955      -0.01511999
C        2.45718891       2.44768914       0.19450993
O        1.25777946       2.65886896       0.35431986
C        4.45427802       0.94629962      -0.38900986
O        5.19454778       1.90825930      -0.55427980
H        0.45357982      -0.85893964       0.02768999
H        0.48393981       0.76664967       0.51414979
H        2.73276896      -1.00115959      -0.04591999
H        3.18615877       3.27543862       0.18438993
H        4.81887801      -0.08703996      -0.51493981
