15
Properties=species:S:1:pos:R:3 atomization_energy=-1437.73 smiles=C.O.N.C.C.C.N.H.H.H.H.H.H.H.H pbc="F F F"
C        1.81818927      -0.71471971       0.21093991
O        3.15126868      -0.39570985      -0.17115994
N        3.34404875       0.98365960       0.00841999
C        4.55642827       1.27883954      -0.32892988
C        5.06404811       2.66091890      -0.25144990
C        6.31761768       2.92927874      -0.62844973
N        6.93070744       4.15542848      -0.60627978
H        1.66747938      -1.78831931       0.07364998
H        1.10425962      -0.17457994      -0.41829984
H        1.65629934      -0.46727983       1.26448946
H        5.26253793       0.51004979      -0.69128974
H        4.38439841       3.41654856       0.12212995
H        6.97822747       2.14321919      -0.99055959
H        6.29570776       4.94793788      -0.53183979
H        7.64004693       4.28417849      -1.32548953
