16
Properties=species:S:1:pos:R:3 atomization_energy=-1528.09 smiles=C.N.C.C.O.C.O.H.H.H.H.H.H.H.H.H pbc="F F F"
C        1.35329946      -0.33261988       0.77043968
N        2.75699882       0.05648998       0.72880970
C        2.93253886       1.44878943       0.24689991
C        2.65634892       2.46245910       1.36559948
O        3.32029857       2.07012916       2.56662901
C        4.37217851       1.61316937      -0.23766991
O        5.00260797       0.71701971      -0.79940971
H        1.27835948      -1.38759948       1.05201960
H        0.86925967      -0.21064992      -0.20376992
H        0.80287971       0.24323990       1.52043940
H        3.25411865      -0.55703979       0.07131997
H        2.29943898       1.66801937      -0.62144975
H        1.58453936       2.51957908       1.58149940
H        3.00066880       3.46708875       1.10046960
H        3.24934883       1.09150957       2.58894897
H        4.79940813       2.62757887      -0.15962994
