13
Properties=species:S:1:pos:R:3 atomization_energy=-1354.18 smiles=C.O.C.C.N.C.N.H.H.H.H.H.H pbc="F F F"
C        3.06591889      -1.06768962       0.53605978
O        2.28544898       0.09278996       0.27947989
C        3.05331873       1.19660958       0.18574993
C        2.50775912       2.43333906      -0.05899998
N        3.57196847       3.28886869      -0.08498997
C        4.69929823       2.54934912       0.14097995
N        4.41666804       1.27704950       0.30887989
H        2.38600904      -1.92293929       0.60027978
H        3.59436867      -0.98618959       1.49260940
H        3.77080853      -1.25961947      -0.28075987
H        1.49036946       2.76020898      -0.21047991
H        3.53935869       4.28667808      -0.24190989
H        5.68760759       2.98879889       0.17152993
