9
Properties=species:S:1:pos:R:3 atomization_energy=-860.01 smiles=C.N.C.O.H.H.H.H.H pbc="F F F"
C        0.98983963      -0.00205000       0.00168000
N        2.42701892       0.04073999       0.00381000
C        3.14505880       1.19729958      -0.07030998
O        4.35725816       1.23881955       0.08439996
H        0.67015971      -0.95580960      -0.42408983
H        0.58332975       0.82748970      -0.58281979
H        0.64008977       0.07567997       1.03432960
H        2.95978887      -0.77823968       0.27305989
H        2.53795889       2.08945913      -0.29475988
