18
Properties=species:S:1:pos:R:3 atomization_energy=-1649.18 smiles=C.O.C.C.N.O.C.H.H.H.H.H.H.H.H.H.H.H pbc="F F F"
C        3.21631867      -1.00990962       0.24787989
O        2.57335894      -0.03605998       1.05962953
C        2.88526889       1.29893949       0.63572974
C        1.94780919       2.30208921       1.37169946
N        1.86740926       2.12166909       2.83393891
O        4.27555835       1.60923931       0.73507969
C        4.78231824       1.63005942       2.06052922
H        2.89166877      -1.99962920       0.58033975
H        4.30286816      -0.95101960       0.35569986
H        2.93356887      -0.88820962      -0.80253969
H        2.63752905       1.37816949      -0.43078982
H        0.93249962       2.15561925       0.98338960
H        2.25459921       3.33075871       1.15686955
H        1.75066934       1.12007952       3.00785873
H        1.02726957       2.57874899       3.18265869
H        5.87485757       1.62859930       2.00127919
H        4.47411832       0.74695969       2.62812895
H        4.48374829       2.54805895       2.57280911
