15
Properties=species:S:1:pos:R:3 atomization_energy=-1434.75 smiles=C.O.N.C.C.N.C.H.H.H.H.H.H.H.H pbc="F F F"
C        2.29761916      -0.62237978      -0.16377994
O        3.08737891       0.46149983      -0.65018977
N        2.93929881       1.50698939       0.26902991
C        4.19127845       1.92197930       0.88008966
C        3.95601841       3.43343861       1.02446957
N        2.89320874       3.79896845       0.03921999
C        2.41227899       2.63670898      -0.29909988
H        2.39490901      -1.45573939      -0.86451969
H        1.24252945      -0.33553985      -0.10810996
H        2.65632899      -0.94889964       0.81768966
H        5.04167793       1.73013929       0.21532992
H        4.36405849       1.43405947       1.84315922
H        4.87254786       3.99768839       0.82540967
H        3.60350861       3.68348854       2.03177923
H        1.60895935       2.48655901      -1.03709957
