16
Properties=species:S:1:pos:R:3 atomization_energy=-1585.49 smiles=O.C.C.C.N.C.C.H.H.H.H.H.H.H.H.H pbc="F F F"
O        1.59492935      -0.28343989      -0.82899965
C        2.78443883       0.04094999      -0.11010995
C        3.53293863      -1.07305961       0.55599981
C        4.08519839      -0.44335983      -0.68598971
N        5.07039777       0.66283977      -0.63991977
C        4.26313810       1.88621930      -0.45562982
C        2.98329882       1.46987941       0.28153989
H        0.80266970      -0.14004995      -0.28423990
H        3.13304884      -2.07668915       0.46823982
H        4.02413851      -0.87998967       1.50121945
H        4.05101835      -1.00797960      -1.61161942
H        5.67917771       0.54244981       0.16875993
H        4.81571832       2.66322899       0.08164997
H        4.00605847       2.28044903      -1.44581937
H        3.12006867       1.54736945       1.36676941
H        2.13885915       2.10405914      -0.00707000
