12
Properties=species:S:1:pos:R:3 atomization_energy=-1329.63 smiles=O.C.C.C.C.C.N.H.H.H.H.H pbc="F F F"
O        1.09636959      -0.04237999       0.35839987
C        2.28725920      -0.04637998       0.13105995
C        3.32674867       1.07283958      -0.07250997
C        4.27965823      -0.02226999      -0.60436976
C        3.36321860      -1.13961955      -0.02431999
C        2.99613870      -2.18161921      -0.94776964
N        2.74493890      -3.02835888      -1.69846932
H        3.63981858       1.53728945       0.86676966
H        3.04081874       1.83744934      -0.79703969
H        4.36937813      -0.01811999      -1.69797929
H        5.28877785       0.00740000      -0.18097993
H        3.70010859      -1.51150940       0.95079963
