12
Properties=species:S:1:pos:R:3 atomization_energy=-1207.59 smiles=C.O.N.C.O.C.C.H.H.H.H.H pbc="F F F"
C        1.87333930      -0.07768997      -1.28555950
O        2.44280906       0.29554989      -0.03352999
N        3.19062882       1.48096936      -0.22370990
C        4.54873822       1.40179942      -0.04511998
O        5.23216784       2.39583911       0.17664993
C        5.19128816       0.11222996      -0.17580992
C        5.72821778      -0.95826965      -0.29157987
H        1.29304944      -0.99245958      -1.13853958
H        2.65851897      -0.27633988      -2.02182918
H        1.20394952       0.70838972      -1.64870934
H        2.76944884       2.32719920       0.14137994
H        6.20519754      -1.90405924      -0.39312986
