14
Properties=species:S:1:pos:R:3 atomization_energy=-1394.1 smiles=C.O.N.C.C.C.C.H.H.H.H.H.H.H pbc="F F F"
C        1.55247941      -0.50510980      -0.80524966
O        2.86366883      -0.27896990      -0.30099987
N        3.15097875       1.08966957      -0.41245985
C        4.35432809       1.29537947       0.01723999
C        4.95009783       2.67461897       0.03391999
C        6.17727759       2.72093891      -0.77191967
C        7.18076721       2.76341888      -1.43062941
H        1.33314942      -1.57341937      -0.73111972
H        1.49299938      -0.20477992      -1.85594926
H        0.81827967       0.04830998      -0.21179992
H        4.98144798       0.47144982       0.40341983
H        5.17742811       2.92390888       1.07568954
H        4.21709824       3.39790860      -0.33773987
H        8.06856698       2.80218882      -2.01903915
