16
Properties=species:S:1:pos:R:3 atomization_energy=-1554.25 smiles=C.N.C.C.C.O.O.H.H.H.H.H.H.H.H.H pbc="F F F"
C        3.73830852      -0.66499972       0.56092980
N        4.38043832       0.62144975       0.29551990
C        3.38883855       1.67904940      -0.07817996
C        2.28483909       1.88899923       0.95493963
C        4.15471842       3.00699879      -0.22164990
O        5.34734798       2.96745873       0.43173982
O        3.74598847       3.99425846      -0.81149966
H        4.50997812      -1.43160946       0.68706975
H        3.09296880      -0.97321964      -0.26826989
H        3.15813865      -0.64195974       1.48827940
H        4.98705780       0.48249982      -0.52255980
H        2.96493895       1.43571943      -1.05982963
H        2.70177890       2.06845923       1.95175918
H        1.61464942       1.02631960       1.01019961
H        1.67371928       2.76111888       0.69779970
H        5.41351781       2.06614914       0.83241968
