16
Properties=species:S:1:pos:R:3 atomization_energy=-1483.17 smiles=C.O.C.C.O.N.C.H.H.H.H.H.H.H.H.H pbc="F F F"
C        1.12601953      -0.34657985      -0.39772986
O        2.53157894      -0.16381993      -0.29149988
C        2.88215891       1.21977951      -0.28970988
C        4.39081822       1.36879942      -0.15206994
O        4.71930809       2.75861904      -0.15936993
N        6.10931772       2.88875888      -0.01919000
C        6.41005772       4.14178846      -0.03287999
H        0.91806962      -1.41985940      -0.40937984
H        0.75066972       0.09244996      -1.32717952
H        0.61670977       0.09863996       0.46243983
H        2.38192909       1.73223932       0.54098976
H        2.54604887       1.69118931      -1.22120948
H        4.89770831       0.86075964      -0.98123961
H        4.73076797       0.90875967       0.78360967
H        7.46061721       4.45588839       0.06590997
H        5.65618781       4.94015800      -0.14097995
