14
Properties=species:S:1:pos:R:3 atomization_energy=-1414.83 smiles=N.C.C.C.C.O.O.H.H.H.H.H.H.H pbc="F F F"
N        1.41037944       0.49212982       0.55941978
C        2.50982899      -0.00940999      -0.31231989
C        2.21981913       0.37406986      -1.73089931
C        2.11978922      -0.49576979      -2.74669891
C        3.83906842       0.63992973       0.14609994
O        3.60993852       1.66217929       1.01810962
O        4.95664785       0.31624989      -0.22433992
H        1.42329944      -0.07206997       1.41571940
H        0.52846978       0.22660992       0.11018996
H        2.59315887      -1.09365956      -0.17942993
H        2.10419918       1.43614940      -1.94324919
H        2.24755917      -1.56473943      -2.60304899
H        1.92404930      -0.14848994      -3.75622858
H        2.62527887       1.72214935       1.10531953
