17
Properties=species:S:1:pos:R:3 atomization_energy=-1565.82 smiles=C.O.N.C.C.C.N.H.H.H.H.H.H.H.H.H.H pbc="F F F"
C        3.55890856       1.11613950      -0.49165982
O        3.35761862       1.82531927      -1.71464931
N        3.47404855       3.19677864      -1.41676948
C        2.18227905       3.86572848      -1.41886938
C        4.59879822       3.77398841      -1.98673923
C        4.77070797       5.27351787      -1.94912926
N        5.53727772       3.08030884      -2.55652895
H        3.70274848       0.05917998      -0.73249972
H        2.67440903       1.21252953       0.14519994
H        4.44764827       1.47416942       0.03747998
H        1.44223942       3.27383883      -0.87020963
H        1.82245922       4.00473853      -2.44310908
H        2.24555919       4.84221815      -0.92953965
H        4.61112813       5.63711763      -0.93018965
H        4.04418850       5.74117752      -2.61950907
H        5.77787759       5.55364796      -2.26957911
H        5.22366781       2.10284921      -2.50106906
