13
Properties=species:S:1:pos:R:3 atomization_energy=-1350.08 smiles=N.C.C.C.N.C.O.H.H.H.H.H.H pbc="F F F"
N        2.25449903      -0.45763983      -1.34693945
C        2.45578898       0.02451999       0.01511999
C        2.87197885       1.44186937       0.01216000
C        2.20768906       2.64586885      -0.00773000
N        3.10808875       3.68138864       0.01100000
C        4.27211857       3.07180881       0.02616999
O        4.21565844       1.71148936       0.02998999
H        2.07390921      -1.45925942      -1.32080942
H        3.12653870      -0.34089988      -1.86333929
H        3.21394877      -0.59023978       0.51263981
H        1.52331938      -0.08854996       0.57816976
H        1.14003956       2.81739884      -0.03519999
H        5.25747818       3.51530850       0.03782999
