19
Properties=species:S:1:pos:R:3 atomization_energy=-1897.37 smiles=C.C.C.C.C.C.C.H.H.H.H.H.H.H.H.H.H.H.H pbc="F F F"
C        1.25948952       0.16495993       0.10066996
C        0.90476962      -0.01279000       1.54798943
C        0.20800992      -1.26617945       2.01246920
C        1.63720935      -1.01107961       2.40556900
C        2.55581889       0.90262966      -0.07006997
C        3.81454839       0.16038993      -0.44058983
C        3.15187881       1.06225959      -1.44458938
H        1.30030952      -0.80639966      -0.41054983
H        0.45949983       0.73912973      -0.38346986
H        0.61174975       0.92423962       2.00826914
H        0.01668999      -2.05604921       1.29614946
H       -0.55389978      -1.16806952       2.77663902
H        1.84097933      -0.73700970       3.43514866
H        2.40793915      -1.62160935       1.94882924
H        2.63830901       1.75304933       0.59775975
H        3.76075843      -0.90855963      -0.60996974
H        4.74607792       0.49053982       0.00411000
H        3.63706867       2.00356923      -1.67873929
H        2.64656907       0.60376978      -2.28630918
