15
Properties=species:S:1:pos:R:3 atomization_energy=-1408.57 smiles=C.O.N.C.N.C.C.H.H.H.H.H.H.H.H pbc="F F F"
C        2.39967908       0.63123976       0.67546971
O        3.03221879       1.86866928       0.37325984
N        4.27675843       1.90019920       1.02129960
C        4.85320818       3.02849892       0.76223967
N        6.08917765       3.49922869       1.18014951
C        6.53249742       3.08785884       2.52207892
C        7.16469724       2.50215914       1.30681954
H        1.44573938       0.59116974       0.14304995
H        2.20765904       0.55802976       1.75034926
H        3.02295874      -0.20576993       0.34525988
H        4.35984809       3.78339860       0.12372995
H        5.82510794       2.49715894       3.08788887
H        7.04964731       3.87559842       3.05120874
H        8.12393704       2.87934894       0.98366963
H        6.90545716       1.49526936       1.00836958
