20
Properties=species:S:1:pos:R:3 atomization_energy=-1935.64 smiles=C.C.C.C.C.C.N.H.H.H.H.H.H.H.H.H.H.H.H.H pbc="F F F"
C        0.97151962       0.06500998       0.11542995
C        2.49346910       0.02231999      -0.04150998
C        2.99451874      -1.33785944      -0.54648976
C        2.70043902      -1.55783943      -2.02867922
C        3.19484881      -0.37431985      -2.85246885
C        2.66351892       0.94655964      -2.30292897
N        2.98381888       1.12552950      -0.88302964
H        0.64807972       1.03816958       0.50337979
H        0.64157972      -0.69865970       0.82884970
H        0.44192984      -0.11386995      -0.82547969
H        2.91174878       0.17692993       0.96047962
H        2.55258905      -2.15053906       0.04202998
H        4.08046844      -1.39626946      -0.39306983
H        3.18431877      -2.47965901      -2.37181919
H        1.62274938      -1.69006934      -2.18057910
H        4.29174842      -0.35956987      -2.84627892
H        2.88335874      -0.49390980      -3.89562847
H        3.10793886       1.77534935      -2.86557898
H        1.58158936       1.01978959      -2.46122899
H        3.99961847       1.17227954      -0.78951971
