15
Properties=species:S:1:pos:R:3 atomization_energy=-1460.97 smiles=N.N.C.C.C.C.O.H.H.H.H.H.H.H.H pbc="F F F"
N        1.19993947       0.04594998       0.49046979
N        2.25802915       0.14228994      -0.35083986
C        2.89675879       1.26822951      -0.32244989
C        2.64327892       2.47171890       0.53277979
C        3.39135858       3.53794866      -0.22779991
C        4.51969843       2.75939899      -0.85563965
O        3.97613855       1.46852943      -1.13053954
H        0.91251966      -0.93567963       0.54120980
H        0.38737986       0.52206980       0.08953997
H        3.07356881       2.30135922       1.52450937
H        1.58089935       2.70946895       0.61896977
H        2.74380896       3.94830843      -1.01274961
H        3.73314859       4.36655808       0.39779985
H        4.86500820       3.21977863      -1.78570932
H        5.37208805       2.64424889      -0.17768994
