16
Properties=species:S:1:pos:R:3 atomization_energy=-1571.69 smiles=O.C.C.C.C.C.N.H.H.H.H.H.H.H.H.H pbc="F F F"
O        1.01472958       0.05202998      -0.06987997
C        2.43084906      -0.01458999      -0.05410998
C        2.96775875      -1.13915955       0.83791968
C        3.75065861      -0.28368988       1.83221927
C        4.50005847       0.78765971       0.98759962
C        3.01621872       1.17236950       0.71927971
N        2.81775892       0.85910964       2.21082907
H        0.67395975      -0.85474967      -0.13554995
H        2.80465889      -0.07547997      -1.08108955
H        3.63284868      -1.81065933       0.28500989
H        2.18127907      -1.72593936       1.32266948
H        4.28336850      -0.76909968       2.64997907
H        5.08558811       0.43060982       0.13573994
H        5.09595792       1.51747943       1.54846937
H        2.79207891       2.18980912       0.39928983
H        3.22784869       1.55394937       2.83468883
