16
Properties=species:S:1:pos:R:3 atomization_energy=-1539.97 smiles=C.N.C.C.O.C.O.H.H.H.H.H.H.H.H.H pbc="F F F"
C        1.10024957      -0.28678990       1.27474950
N        2.30014904      -0.13125995       0.46442981
C        2.72542890       1.27594946       0.41554984
C        4.02817834       1.42454948      -0.38310985
O        5.11725821       0.73151973       0.25574991
C        5.71532769       1.40067945       1.27059953
O        5.40670790       2.49961892       1.70134930
H        0.80943969      -1.34113949       1.29535954
H        0.26357990       0.27770988       0.85177967
H        1.26638951       0.03707998       2.30682900
H        3.05723869      -0.68994974       0.86033963
H        2.87129882       1.64975929       1.43534939
H        1.94679923       1.87828928      -0.06609998
H        4.27920807       2.48266907      -0.52280980
H        3.91310847       0.99264959      -1.38347942
H        6.54062754       0.78858968       1.66581930
