13
Properties=species:S:1:pos:R:3 atomization_energy=-1349.66 smiles=C.N.N.C.C.C.O.H.H.H.H.H.H pbc="F F F"
C        1.09608951       0.00142000      -0.12723995
N        2.51593895       0.02006999       0.11672995
N        3.21637872      -1.15408949       0.27963990
C        4.44508811      -0.80648968       0.48340982
C        4.67882811       0.66911973       0.47530983
C        3.29276873       1.17232951       0.21627992
O        2.95280888       2.33886902       0.11994995
H        0.71346972       1.01832960      -0.24686991
H        0.59902973      -0.47691983       0.72101972
H        0.90154962      -0.57081980      -1.03832962
H        5.26920805      -1.51304937       0.65159973
H        5.04942803       0.99798962       1.44729942
H        5.36081793       0.93913966      -0.33230986
