16
Properties=species:S:1:pos:R:3 atomization_energy=-1490.98 smiles=C.O.C.C.O.N.C.H.H.H.H.H.H.H.H.H pbc="F F F"
C        2.06616920      -0.00821000       2.63122885
O        1.67450933       1.28573954       2.19436925
C        2.61128887       1.83068926       1.25645952
C        2.03659926       3.14692883       0.75402970
O        3.87660850       2.09135918       1.87863926
N        4.90151801       2.00934925       0.91847965
C        6.02309765       2.27588916       1.49616942
H        1.28810943      -0.39426986       3.29505863
H        3.00414870       0.03912999       3.19180872
H        2.16692924      -0.69053975       1.78202932
H        2.72382886       1.13014956       0.41808984
H        1.90959930       3.85213843       1.58306940
H        1.05276960       2.99544883       0.29902989
H        2.70226893       3.61680849       0.02379999
H        6.95705738       2.26679917       0.91322965
H        6.10384769       2.51885892       2.56934889
