15
Properties=species:S:1:pos:R:3 atomization_energy=-1471.92 smiles=C.N.C.C.N.C.O.H.H.H.H.H.H.H.H pbc="F F F"
C        2.32924914      -0.53634977      -1.50773944
N        2.22249914       0.15630994      -0.23014990
C        3.24011880       1.22640952      -0.16667993
C        2.60941910       2.56539890      -0.63374976
N        3.12955885       3.17004868       0.60622975
C        3.33155860       1.96011917       1.20409953
O        3.45249870       1.67716928       2.37075915
H        1.56035934      -1.31278945      -1.56698934
H        3.30514860      -1.01985961      -1.62202935
H        2.17065920       0.14892995      -2.34688912
H        2.33043913      -0.52152978       0.52738980
H        4.22729823       0.98195964      -0.57513977
H        1.51705942       2.62301899      -0.68642971
H        3.05380876       3.00007885      -1.53275934
H        2.69749886       3.88317845       1.17851957
