13
Properties=species:S:1:pos:R:3 atomization_energy=-1326.28 smiles=N.C.C.N.O.C.C.H.H.H.H.H.H pbc="F F F"
N        2.77358884      -0.67532972      -1.28173946
C        2.31119913       0.04380998      -0.09164996
C        2.93538894       1.39780944      -0.00403000
N        2.22050901       2.43415914       0.46031981
O        3.07108891       3.52439873       0.43236983
C        4.28444848       3.13740888      -0.02798999
C        4.25997840       1.79843930      -0.31165988
H        2.25371908      -1.54853939      -1.35347950
H        3.74882845      -0.93790961      -1.15646960
H        2.55807902      -0.53500976       0.80538971
H        1.21999955       0.13406995      -0.13941994
H        5.03139796       3.91393839      -0.09046997
H        5.06897815       1.19798958      -0.69635970
