15
Properties=species:S:1:pos:R:3 atomization_energy=-1434.55 smiles=C.N.C.C.C.N.O.H.H.H.H.H.H.H.H pbc="F F F"
C        1.28624950       0.18649992       0.33473987
N        2.73576893       0.06093998       0.15053994
C        3.35062879      -1.18463949       0.23536991
C        2.81630878      -2.38720913       0.47503980
C        3.44451873       1.21137953      -0.17600993
N        2.98464880       2.41271906      -0.33088986
O        4.04260840       3.27101878      -0.65711973
H        0.95415961       1.22722947       0.41229984
H        0.96927961      -0.30961988       1.25935957
H        0.75806971      -0.27020990      -0.50969980
H        4.42729826      -1.13337952       0.07488997
H        1.75562929      -2.53117900       0.64138972
H        3.44711875      -3.26996883       0.50673980
H        4.52532844       1.01692960      -0.30878987
H        3.59144870       4.13083830      -0.74657968
