18
Properties=species:S:1:pos:R:3 atomization_energy=-1779.73 smiles=C.C.C.C.C.C.N.H.H.H.H.H.H.H.H.H.H.H pbc="F F F"
C        1.01020958       0.00349000       0.05133998
C        2.52882904      -0.00156000      -0.05340998
C        3.23730884      -0.96519961      -1.06449953
C        4.73455799      -0.75289970      -0.85509966
C        4.74154807       0.77532967      -0.81220965
C        3.24631883       1.01248958      -1.00753959
N        2.82478887       0.05626998      -2.11486914
H        0.67522974       0.85829966       0.64804975
H        0.66200972      -0.90863962       0.54713977
H        0.51602978       0.06354997      -0.92343960
H        2.94169874      -0.03465999       0.96492962
H        2.84999878      -1.97697919      -1.18589950
H        5.09019820      -1.19366954       0.08176997
H        5.33190783      -1.14443958      -1.68501930
H        5.34152770       1.20700953      -1.62026934
H        5.10228790       1.16014960       0.14695995
H        2.86781892       2.03273923      -1.07121962
H        3.41866865       0.07716997      -2.94320894
