14
Properties=species:S:1:pos:R:3 atomization_energy=-1456.81 smiles=N.C.C.C.O.C.C.H.H.H.H.H.H.H pbc="F F F"
N        0.94116960      -0.01108000      -0.21534992
C        2.39001909      -0.00427000      -0.07026997
C        2.82061884       1.24444956       0.63997975
C        3.55921867       1.19318948       1.75818932
O        3.97115854       0.02062999       2.35378911
C        3.56885848      -1.16418955       1.77548927
C        2.83131895      -1.23851953       0.65927975
H        0.66476973      -0.83109968      -0.74981968
H        0.65985974       0.79126969      -0.77363969
H        2.84429887      -0.01013000      -1.06819959
H        2.53678908       2.20542919       0.22731991
H        3.90294835       2.05561924       2.31039898
H        3.92034836      -2.01538918       2.34109912
H        2.55551887      -2.20795906       0.26063989
