18
Properties=species:S:1:pos:R:3 atomization_energy=-1706.05 smiles=C.O.C.C.N.C.C.H.H.H.H.H.H.H.H.H.H.H pbc="F F F"
C        1.86505930       2.09401913      -2.03291926
O        3.21481881       2.00675920      -1.59916940
C        3.30221879       1.52765935      -0.25287990
C        4.73961824       1.42570945       0.16823994
N        5.80868774       1.41306942      -0.83841968
C        5.67931801       2.59512907       0.00990000
C        6.72438727       2.86510888       1.03587961
H        1.85822932       2.43278898      -3.07212876
H        1.31551954       2.81899888      -1.42480938
H        1.37926940       1.11429950      -1.98210921
H        2.83744884       0.53675980      -0.19119993
H        2.77140895       2.21226913       0.41870985
H        4.87564800       0.76757970       1.01868961
H        5.37907813       1.58773943      -1.75569931
H        5.32193771       3.49961854      -0.46928981
H        7.14320720       1.94394928       1.45564944
H        6.29975767       3.45008869       1.85821923
H        7.54476716       3.44284854       0.59753978
