16
Properties=species:S:1:pos:R:3 atomization_energy=-1576.01 smiles=N.C.C.C.C.C.O.H.H.H.H.H.H.H.H.H pbc="F F F"
N        0.98699964      -0.00242000      -0.01341999
C        2.44428898      -0.01528999       0.00281000
C        3.01364872      -1.14407951       0.87116963
C        3.83786859      -0.28443987       1.82328926
C        4.55977822       0.78213971       0.95462964
C        3.06233882       1.16144949       0.77063972
O        2.93255879       0.83686967       2.23282908
H        0.63404978      -0.84021968      -0.47054982
H        0.64671977       0.79501971      -0.54726978
H        2.82619890      -0.06586997      -1.02278961
H        3.63139854      -1.83610933       0.29058988
H        2.24821902      -1.71467933       1.40711945
H        4.38447814      -0.73133970       2.65404893
H        5.09750824       0.42536985       0.07331997
H        5.16885793       1.50663940       1.50215939
H        2.82404878       2.19659911       0.52265979
