16
Properties=species:S:1:pos:R:3 atomization_energy=-1520.28 smiles=N.C.C.C.O.C.O.H.H.H.H.H.H.H.H.H pbc="F F F"
N        0.97415964       0.07294997       0.18192992
C        2.40297907       0.08731996      -0.09699996
C        3.10230884       1.07441955       0.85568967
C        4.13945844      -0.02841999       1.16012954
O        5.38907801       0.02688999       0.43532984
C        3.10799866      -1.07716959       0.65230973
O        3.64134846      -2.11716926      -0.19874993
H        0.50677980      -0.75501972      -0.19360993
H        0.47356982       0.86807964      -0.21401991
H        2.67717887       0.18706993      -1.15467957
H        2.53170889       1.38006941       1.74152927
H        3.50300861       1.97236922       0.37410986
H        4.35510830      -0.12363995       2.23005924
H        5.14009822       0.10672996      -0.50398980
H        2.53467908      -1.51928940       1.47621948
H        4.52236809      -2.29832898       0.17333993
