16
Properties=species:S:1:pos:R:3 atomization_energy=-1586.31 smiles=C.N.C.C.C.C.O.H.H.H.H.H.H.H.H.H pbc="F F F"
C        2.58024910      -0.43049984       1.15901954
N        3.83199861      -1.10801961       0.84142967
C        4.66617824      -0.26842990      -0.03018999
C        6.01741767      -0.86156968      -0.33413986
C        6.54642763      -1.99053922       0.16781993
C        6.84753754      -0.09451996      -1.30145952
O        6.45802741       0.94026966      -1.83087927
H        1.97816918      -1.06799962       1.81384930
H        1.99456920      -0.22695991       0.25649990
H        2.75998894       0.50995980       1.68984930
H        3.61482870      -1.97033922       0.34270988
H        4.82563796       0.70513970       0.45063981
H        4.13250848      -0.09610996      -0.97343961
H        6.00048775      -2.58869892       0.89176964
H        7.53395678      -2.34819897      -0.10509996
H        7.84388669      -0.51292980      -1.52301936
