16
Properties=species:S:1:pos:R:3 atomization_energy=-1617.73 smiles=C.C.C.C.C.C.N.H.H.H.H.H.H.H.H.H pbc="F F F"
C        1.15724956       0.18159994      -0.02135999
C        2.60363894      -0.10126996      -0.05078998
C        3.31156867      -1.14955951      -0.48798982
C        4.69932800      -0.74608972      -0.15603995
C        4.84460823       0.77544972      -0.54511980
C        3.65747849       0.79424966       0.49337981
N        4.54099822      -0.19476992       1.26992947
H        0.57759975      -0.67845970      -0.37023985
H        0.92198965       1.03466962      -0.66433975
H        0.83287968       0.41665984       0.99695960
H        2.97082887      -2.06386921      -0.94336961
H        5.51463805      -1.44590945      -0.33477987
H        4.60624805       1.05055961      -1.57727941
H        5.77186756       1.27631951      -0.24313990
H        3.37601861       1.71709932       0.99920963
H        5.38986781       0.21728992       1.65237938
