15
Properties=species:S:1:pos:R:3 atomization_energy=-1484.45 smiles=C.N.C.N.C.C.O.H.H.H.H.H.H.H.H pbc="F F F"
C        0.98795964       0.22229991      -0.04854998
N        2.42386907       0.19704993       0.04077998
C        3.20321864       1.30008949      -0.04567998
N        4.46460846       1.29657944      -0.32512987
C        4.84498824       2.70845886      -0.21992992
C        3.53884873       3.46437871      -0.17824992
O        2.57630895       2.48343893       0.17010994
H        0.59022975      -0.78513968       0.10577996
H        0.66789977       0.56892977      -1.03580959
H        0.55468977       0.87377968       0.71663969
H        2.88142891      -0.63499975      -0.31157987
H        5.42107766       2.86197896       0.69927975
H        5.46421772       3.02212882      -1.06573961
H        3.27605859       3.88597857      -1.15419951
H        3.54960864       4.26819835       0.56356975
