12
Properties=species:S:1:pos:R:3 atomization_energy=-1216.27 smiles=N.C.C.N.C.C.H.H.H.H.H.H pbc="F F F"
N        4.83100808      -2.22994922      -0.48339982
C        4.28278815      -1.24085952      -0.26898988
C        3.59500859       0.00000000       0.00000000
N        4.50507835       1.15995960       0.00549000
C        4.57018840       1.87206931      -1.26849951
C        3.81465840       2.44232912      -0.09488997
H        3.12799869      -0.06050998       0.99071963
H        2.76959898       0.12083995      -0.71446971
H        4.01005843       1.49404946      -2.11494913
H        5.53168807       2.30800916      -1.51410942
H        4.26663844       3.26450863       0.44817983
H        2.73190901       2.45488891      -0.13015995
