17
Properties=species:S:1:pos:R:3 atomization_energy=-1585.18 smiles=N.C.C.C.N.C.O.H.H.H.H.H.H.H.H.H.H pbc="F F F"
N        2.69035889      -1.43300940      -0.86556964
C        1.95105922      -0.26648991      -0.38385984
C        2.90047891       0.76703971       0.15476993
C        3.58342860       0.49747981       1.46745943
N        2.61545890       0.53708979       2.56061899
C        3.51892869       1.75913934      -0.80986966
O        2.41582904       2.12163906       0.02958999
H        2.02817922      -2.07088919      -1.30637948
H        3.04720878      -1.94165925      -0.05637998
H        1.22579951      -0.57089979       0.37822985
H        1.37698946       0.14462994      -1.22259957
H        4.36185816       1.24504948       1.65878935
H        4.07668852      -0.47943980       1.45083937
H        2.15382921       1.44846948       2.53453904
H        3.11603869       0.50339981       3.44705869
H        3.32818872       1.63897932      -1.86959924
H        4.48706846       2.18511904      -0.57952976
