18
Properties=species:S:1:pos:R:3 atomization_energy=-1704.84 smiles=C.O.C.C.C.C.N.H.H.H.H.H.H.H.H.H.H.H pbc="F F F"
C        3.74192846      -0.78046966       0.06113998
O        3.37557855       0.15430994       1.06587953
C        3.36273867       1.51059936       0.59748976
C        2.54128890       2.31355918       1.60242940
C        4.77306828       2.03474917       0.52747979
C        5.47839773       2.15946906      -0.80197970
N        5.04371778       3.34484864      -0.07484996
H        3.65286865      -1.78560927       0.48277981
H        4.77980805      -0.63147973      -0.24887990
H        3.07337881      -0.70652973      -0.80168971
H        2.86075895       1.55995940      -0.37737985
H        2.98942871       2.26905905       2.60150902
H        1.53087935       1.89953923       1.68800931
H        2.46365894       3.36471871       1.30763949
H        5.35541803       1.78323925       1.40686939
H        4.93160801       1.94387926      -1.71151939
H        6.54435750       1.97603925      -0.84377964
H        5.83025752       3.79670856       0.39694984
