14
Properties=species:S:1:pos:R:3 atomization_energy=-1402.78 smiles=C.N.C.C.O.C.O.H.H.H.H.H.H.H pbc="F F F"
C        2.54097904      -0.46777982      -1.64599931
N        2.32894912       0.09660997      -0.31878988
C        3.17424873       1.29911953      -0.15260994
C        2.38788916       2.55988900      -0.53843977
O        2.51363895       3.08477888       0.81287965
C        3.11646867       1.95104925       1.26228951
O        3.46003862       1.67519933       2.38873901
H        1.88513931      -1.33354950      -1.78259934
H        3.57459852      -0.80378967      -1.77741936
H        2.29837919       0.25580990      -2.43096892
H        2.52354900      -0.62159976       0.38270984
H        4.19599830       1.22897951      -0.53916976
H        1.33582944       2.43524896      -0.81537969
H        2.88328885       3.21054886      -1.26566949
