12
Properties=species:S:1:pos:R:3 atomization_energy=-1328.68 smiles=N.C.C.C.C.O.C.H.H.H.H.H pbc="F F F"
N        0.99999962       0.00000000       0.00000000
C        2.15100915       0.00000000       0.00000000
C        3.55700851       0.00000000       0.00000000
C        4.33528818      -1.07953961      -0.06686998
C        5.75802770      -0.67012974      -0.03978999
O        5.75116782       0.76783973      -0.04329998
C        4.38896812       1.22157952       0.07902997
H        4.00044839      -2.10569917      -0.12678995
H        6.26353754      -1.02018959       0.86493963
H        6.30183739      -1.02186961      -0.92153962
H        4.18332824       1.92253923      -0.73531972
H        4.27876851       1.73378926       1.03968956
