13
Properties=species:S:1:pos:R:3 atomization_energy=-1329.62 smiles=C.O.C.C.N.C.N.H.H.H.H.H.H pbc="F F F"
C        1.89128926      -0.67555973      -0.77584967
O        2.40667900       0.00162000       0.37085986
C        3.06149881       1.16826950       0.00000000
C        2.38143907       2.30563901      -0.23411991
N        1.01732961       2.50113896      -0.18893992
C        4.46749816       1.16826950       0.00000000
N        5.61850769       1.16826950       0.00000000
H        1.54045936      -1.65984939      -0.45288982
H        2.66417901      -0.82092965      -1.53772939
H        1.03818958      -0.13584994      -1.19828947
H        2.91554889       3.22125881      -0.48932979
H        0.53363979       1.77685931       0.34263986
H        0.74852970       3.43765860       0.10951996
