16
Properties=species:S:1:pos:R:3 atomization_energy=-1519.19 smiles=N.C.C.O.C.C.O.H.H.H.H.H.H.H.H.H pbc="F F F"
N        1.05827956      -0.14788995      -0.16070993
C        2.52508898      -0.07315997      -0.06266998
C        3.34107881      -0.68328970      -1.17808960
O        2.57310888      -1.22491950      -2.26769899
C        3.27489863       0.81221969      -1.02228962
C        4.47683845       1.56554942      -0.56968979
O        5.25242802       1.93981925      -1.69845935
H        0.63050977       0.64823976       0.31563988
H        0.71457972      -0.97673960       0.32852987
H        2.92344888      -0.17164993       0.94435963
H        4.25984821      -1.19317951      -0.91120961
H        1.63088933      -1.00348962      -2.12136907
H        2.69982888       1.37809947      -1.74640936
H        5.10861788       0.97832960       0.10477996
H        4.17658848       2.47816899      -0.04653998
H        5.35676801       1.14641950      -2.25246903
