11
Properties=species:S:1:pos:R:3 atomization_energy=-1163.8 smiles=O.C.C.C.N.N.C.H.H.H.H pbc="F F F"
O        0.89636963      -1.26098950      -0.00308000
C       -0.46555981      -1.51516946       0.00009000
C       -1.46896937      -0.64732972       0.00158000
C       -1.30152954       0.80614967      -0.00241000
N       -0.27517988       1.57643940      -0.00291000
N        1.03718959       1.16444958       0.00112000
C        1.48710947      -0.04170998      -0.00069000
H       -0.62071975      -2.58785891       0.00162000
H       -2.49424906      -1.00097961       0.00435000
H       -2.26944916       1.33853947      -0.00572000
H        2.57763898      -0.19853992       0.00144000
