18
Properties=species:S:1:pos:R:3 atomization_energy=-1707.28 smiles=C.O.C.C.C.C.N.H.H.H.H.H.H.H.H.H.H.H pbc="F F F"
C        1.31496946       0.20945992      -0.27806990
O        2.71794904       0.26132989      -0.06020998
C        3.21417864       1.59423935      -0.15153994
C        4.68646820       1.56352938       0.10335996
C        5.66537771       1.53122933      -1.04217957
C        5.52868786       2.77157902      -0.20538991
N        6.61146752       3.14518876       0.69973974
H        0.98357961      -0.82436968      -0.14699994
H        1.07580952       0.52685978      -1.29760945
H        0.78793967       0.83873970       0.44622982
H        2.72899888       2.21670915       0.60856975
H        2.98837876       2.00543925      -1.14256956
H        4.92377817       0.98396958       0.98821960
H        5.28152787       1.56122938      -2.05598915
H        6.55348735       0.92011962      -0.93315966
H        5.03532826       3.61912867      -0.67789972
H        7.09932729       2.32269913       1.05432957
H        6.24642746       3.62574859       1.52162939
