14
Properties=species:S:1:pos:R:3 atomization_energy=-1402.09 smiles=C.O.C.C.N.C.O.H.H.H.H.H.H.H pbc="F F F"
C        3.55656869      -1.24224949       0.02728999
O        2.64609898      -0.14985994       0.09227996
C        3.17160884       1.11009957       0.00609000
C        4.45000807       1.48566941      -0.13261995
N        4.80502805       2.80657888      -0.20197993
C        6.08372780       3.27221862      -0.34072987
O        6.36097727       4.46314847      -0.39838983
H        2.97982877      -2.16748916       0.11551995
H        4.26943831      -1.20721948       0.85742968
H        4.07849849      -1.25856951      -0.93490964
H        2.35626903       1.82349933       0.07014997
H        5.26033810       0.76662967      -0.19567992
H        4.09303832       3.52726849      -0.14914995
H        6.84872753       2.48018890      -0.39637985
