15
Properties=species:S:1:pos:R:3 atomization_energy=-1486.42 smiles=N.C.C.C.C.N.O.H.H.H.H.H.H.H.H pbc="F F F"
N        0.91282964      -0.01447000      -0.37542986
C        2.31974912       0.03320998       0.02070999
C        3.29797861      -0.81416970      -0.73895972
C        3.33168880       0.68687975      -0.89012967
C        4.38376808       1.56382940      -0.31753987
N        5.22520804       1.03305962       0.61404975
O        4.48182805       2.73153884      -0.66786974
H        0.44747983       0.86890969      -0.16286994
H        0.40853985      -0.73145974       0.14591995
H        2.48374905       0.13523995       1.09154956
H        2.93285881      -1.38697951      -1.58576935
H        4.07224849      -1.32712943      -0.18556993
H        2.95834882       1.06461964      -1.83894932
H        5.16857784       0.08462997       0.94769962
H        5.93453745       1.64362941       0.99666960
