13
Properties=species:S:1:pos:R:3 atomization_energy=-1323.22 smiles=N.C.C.C.C.C.H.H.H.H.H.H.H pbc="F F F"
N        2.67797901      -0.64085976       1.35412951
C        2.46873912      -0.02857999       0.04483998
C        2.96469873       1.39698949       0.00000000
C        2.11614921       2.43562897      -0.08487997
C        4.34715835       1.65321939       0.00000000
C        5.51738796       1.87010921       0.00000000
H        2.26125899      -1.56920935       1.35889945
H        2.17956927      -0.09581996       2.05537914
H        1.39971946      -0.07607997      -0.19800992
H        2.98756877      -0.62233978      -0.71741971
H        1.04115958       2.29092911      -0.10325996
H        2.47586899       3.45964876      -0.13258995
H        6.56525759       2.05869919       0.00589000
