10
Properties=species:S:1:pos:R:3 atomization_energy=-1124.33 smiles=N.C.O.C.C.C.O.H.H.H pbc="F F F"
N        1.03168959       0.05786998       0.00000000
C        2.38656896      -0.04261998       0.00000000
O        2.97843892      -1.11085959       0.00000000
C        3.11636874       1.19734954      -0.00000000
C        3.73080847       2.22950916      -0.00000000
C        4.46858823       3.46423867      -0.00000000
O        3.88410854       4.53782843      -0.00000000
H        0.55504979       0.94812965      -0.00000000
H        0.49154981      -0.79580970       0.00000000
H        5.56579771       3.36977872      -0.00000000
