16
Properties=species:S:1:pos:R:3 atomization_energy=-1567.55 smiles=N.C.C.C.C.O.C.H.H.H.H.H.H.H.H.H pbc="F F F"
N        1.08606956      -0.14787995      -0.04907998
C        2.50129894       0.12836995       0.00246000
C        3.33060857      -0.61237976      -1.08389951
C        4.42068818      -0.27146989       0.01073000
C        3.28872865      -0.77126973       0.99645960
O        4.48419845       1.18214948       0.12671995
C        3.08322881       1.53326943       0.11404996
H        0.56761979       0.19969992       0.75692968
H        0.84911966      -1.13625951      -0.12832995
H        3.44360857      -0.10152996      -2.04429915
H        3.12648874      -1.67446934      -1.25818951
H        5.38568769      -0.77600971      -0.00788000
H        3.08078877      -1.84681928       0.99909962
H        3.36063877      -0.41178985       2.02662915
H        2.86787897       2.16278924      -0.75327971
H        2.82146895       2.03710922       1.04801959
