12
Properties=species:S:1:pos:R:3 atomization_energy=-1277.04 smiles=N.C.C.O.C.O.C.H.H.H.H.H pbc="F F F"
N        0.98158959       0.03591998      -0.00818000
C        2.32062900      -0.02247999      -0.00135000
C        3.18720872       1.04356959       0.00253000
O        4.47358842       0.59884976       0.00954999
C        4.41293808      -0.75624971       0.00975000
O        5.59087792      -1.35330943       0.01612000
C        3.10785887      -1.19207947       0.00308000
H        0.47070983       0.91382963      -0.00245000
H        0.39227985      -0.79047971      -0.00169000
H        3.06660877       2.11667911       0.00125000
H        5.41597804      -2.30755900       0.01515999
H        2.77262897      -2.21740911       0.00158000
