16
Properties=species:S:1:pos:R:3 atomization_energy=-1517.15 smiles=N.C.C.O.C.C.O.H.H.H.H.H.H.H.H.H pbc="F F F"
N        2.83023897      -1.05946956      -0.57197976
C        2.19726904       0.07959997       0.08182997
C        3.19098865       1.20696954       0.17029993
O        4.34812831       0.93404963       0.99520962
C        3.44316875       2.09295921      -1.01944963
C        2.71776887       2.64028905       0.17814993
O        3.47159867       3.53885857       1.01177958
H        2.27380919      -1.89625930      -0.41443983
H        3.73692851      -1.22076954      -0.13127995
H        1.87958929      -0.20163993       1.09172960
H        1.30498951       0.37270985      -0.48134982
H        4.08712847       0.88739963       1.93215923
H        2.87113884       1.90861924      -1.92142922
H        4.46065846       2.41242913      -1.20759949
H        1.65629934       2.83508878       0.06900997
H        4.39737833       3.23802874       1.07792961
