12
Properties=species:S:1:pos:R:3 atomization_energy=-1272.93 smiles=N.C.C.O.O.C.C.H.H.H.H.H pbc="F F F"
N        0.90991963      -0.05318998      -0.00038000
C        2.25090912      -0.01033000      -0.00061000
C        3.03654879       1.11675960      -0.00321000
O        2.80425894       2.41589894      -0.00607000
O        4.35236849       0.78917969      -0.00262000
C        4.40341813      -0.57230975       0.00039000
C        3.13324869      -1.10903953       0.00174000
H        0.35899985       0.80103970      -0.00185000
H        0.37432986      -0.91347965       0.00206000
H        3.69986862       2.79404887      -0.00705000
H        5.39587784      -1.00098958       0.00122000
H        2.88781895      -2.16060910       0.00410000
