12
Properties=species:S:1:pos:R:3 atomization_energy=-1255.59 smiles=N.C.C.C.C.O.O.H.H.H.H.H pbc="F F F"
N        1.01839962      -0.01199000       0.05239998
C        2.46999901       0.00000000       0.00000000
C        2.95201883       1.36116943       0.00000000
C        3.34929875       2.48306901       0.00000000
C        3.87101836       3.82653841      -0.00719000
O        5.21930803       3.88402855       0.05064998
O        3.14266872       4.80133796      -0.07339997
H        0.68473972      -0.97002961      -0.02946999
H        0.64729976       0.49027982      -0.75318969
H        2.80694880      -0.52595981      -0.89946965
H        2.86388886      -0.54554977       0.86350967
H        5.60776797       2.98889881       0.09579996
