16
Properties=species:S:1:pos:R:3 atomization_energy=-1587.63 smiles=N.C.C.O.C.C.C.H.H.H.H.H.H.H.H.H pbc="F F F"
N        0.97341962       0.01458000      -0.03873998
C        2.42683901      -0.00811000       0.01436999
C        3.03371890       1.07103957       0.91009967
O        4.36027806       0.61011976       1.20687958
C        4.26281814      -0.81625970       1.36311944
C        3.01817883      -1.23295953       0.63774978
C        2.52185889      -2.47955909       0.64122974
H        0.65903972      -0.68247972      -0.71085973
H        0.66291976       0.91430963      -0.40065984
H        2.83847885       0.09635996      -0.99745959
H        2.48940909       1.19243955       1.85518923
H        3.08774883       2.04412920       0.41174982
H        5.16226805      -1.27049949       0.93847962
H        4.19948830      -1.04078960       2.43283894
H        1.59578942      -2.72414882       0.13214995
H        3.02933893      -3.28588867       1.16173954
