16
Properties=species:S:1:pos:R:3 atomization_energy=-1656.48 smiles=C.C.C.C.C.C.N.H.H.H.H.H.H.H.H.H pbc="F F F"
C        0.95628960      -0.00579000       0.04958998
C        2.47038912       0.01313999       0.00801000
C        3.17637867       1.04999957       0.91673964
C        4.25046855      -0.02294999       1.23154950
C        3.20043870      -1.08649953       0.81878969
C        5.44408775       0.02792999       0.40978984
N        6.39962735       0.06850997      -0.24812991
H        0.56732980      -0.86717964      -0.50269979
H        0.54771982       0.90020968      -0.40925985
H        0.58016974      -0.06421998       1.07619962
H        2.82794881       0.06511998      -1.03027963
H        2.59565897       1.34811948       1.79854932
H        3.52066851       1.95723919       0.41083983
H        4.50308847      -0.06881998       2.29788916
H        3.56443865      -1.93578926       0.23243991
H        2.62758896      -1.47692941       1.66916937
