17
Properties=species:S:1:pos:R:3 atomization_energy=-1624.28 smiles=C.C.C.C.N.N.C.H.H.H.H.H.H.H.H.H.H pbc="F F F"
C        0.51124981       0.26528989       0.23366991
C        1.96385922      -0.05078998       0.14446994
C        2.52557901      -0.73994968      -1.06861959
C        2.84285882       0.71112973      -0.81452965
N        4.20499845       1.08001954      -0.40102985
N        4.10353833       2.28769902       0.19923992
C        5.07299779       2.50907907       1.02281958
H        0.35112986       1.10957951       0.91127964
H       -0.03758998      -0.59618975       0.62683973
H        0.08430997       0.52478978      -0.74075972
H        2.37867907      -0.30675986       1.11284961
H        1.85809925      -0.97283963      -1.88952925
H        3.30617862      -1.47520940      -0.91068962
H        2.35992909       1.42896945      -1.47510948
H        4.79265827       1.14972958      -1.23664950
H        5.10758787       3.45991876       1.57715943
H        5.88693768       1.78906924       1.21931951
