12
Properties=species:S:1:pos:R:3 atomization_energy=-1323.21 smiles=O.C.C.C.C.C.N.H.H.H.H.H pbc="F F F"
O        1.22897951      -0.15259995      -0.43414984
C        2.41477909       0.07526997      -0.26944989
C        2.93901873       1.36264947       0.25391991
C        4.27081856       1.27610944       0.14059994
C        4.72821791      -0.00165000      -0.39519986
C        4.42137806      -1.26622954       0.33792987
N        3.50453874      -0.73564970      -0.61676976
H        2.32187905       2.17049922       0.59974976
H        4.95451817       2.06729914       0.41895985
H        5.38483784      -0.00114000      -1.25518954
H        4.89212826      -2.18524924       0.01693999
H        4.08763843      -1.23827956       1.36684940
