17
Properties=species:S:1:pos:R:3 atomization_energy=-1584.35 smiles=N.C.C.O.C.C.N.H.H.H.H.H.H.H.H.H.H pbc="F F F"
N        1.57068940      -0.16055994       1.18692952
C        2.25630900       0.16979993      -0.05792998
C        3.27476868       1.22137955       0.22119992
O        3.42867863       2.20586925      -0.81363968
C        2.87029883       2.65891892       0.42801983
C        3.73813844       3.57559851       1.22145954
N        3.25972873       4.94301792       1.05481960
H        0.88331963      -0.88999966       0.99932962
H        1.03250960       0.64981973       1.49409942
H        1.52610941       0.50093981      -0.80451967
H        2.75138899      -0.72499974      -0.44896982
H        4.16236835       0.84190967       0.70959971
H        1.81560931       2.89523875       0.47700982
H        4.78594827       3.51057854       0.90526967
H        3.68839865       3.30307873       2.28056915
H        3.34802877       5.19839785       0.07089998
H        3.87734859       5.57358768       1.56372935
