12
Properties=species:S:1:pos:R:3 atomization_energy=-1331.92 smiles=O.C.C.C.C.C.N.H.H.H.H.H pbc="F F F"
O        1.09630954      -0.00366000       0.47341981
C        2.26926899      -0.01056999       0.17139993
C        3.31368876       1.09009955      -0.06798997
C        4.23418813      -0.01268999      -0.66230975
C        3.28365881      -1.12314951      -0.13341995
C        4.37548809       0.02802999      -2.10365919
N        4.48396832       0.06060998      -3.25792859
H        3.67989862       1.53867942       0.86062969
H        2.98430891       1.87660926      -0.75182968
H        5.21366793      -0.04053999      -0.16667993
H        2.93366880      -1.85873928      -0.86222966
H        3.63686857      -1.63551936       0.76680971
