17
Properties=species:S:1:pos:R:3 atomization_energy=-1615.46 smiles=C.N.C.C.N.C.O.H.H.H.H.H.H.H.H.H.H pbc="F F F"
C        1.06627960      -0.18769993       0.04712999
N        2.51760912      -0.05089998       0.02755999
C        2.90374887       1.36982943      -0.01938999
C        4.43356818       1.52533942      -0.01682999
N        5.07031804       0.84684969      -1.13203952
C        5.12447791       1.40327947      -2.38058896
O        4.68154824       2.49887908      -2.69191905
H        0.80228969      -1.24826948       0.09530996
H        0.61160977       0.23239991      -0.85548964
H        0.63431978       0.29956988       0.92675966
H        2.88031890      -0.50196979      -0.81243965
H        2.49955911       1.89669924       0.85301969
H        2.48884892       1.83685926      -0.92109961
H        4.85959822       1.10711954       0.90162967
H        4.69199829       2.58913898      -0.05818998
H        5.40031786      -0.09900996      -0.99236963
H        5.62242790       0.73884970      -3.10648871
