16
Properties=species:S:1:pos:R:3 atomization_energy=-1574.53 smiles=N.C.C.C.C.O.C.H.H.H.H.H.H.H.H.H pbc="F F F"
N        1.05744958      -0.01334999      -0.02972999
C        2.51976908       0.01115000       0.03866998
C        3.14823868       1.04243959      -0.95846962
C        2.71102886       0.05200998      -2.09540922
C        3.22170871      -0.95142964      -0.99728958
O        4.64786807      -0.69493971      -0.86417967
C        4.66036806       0.74964973      -0.82900968
H        0.61464973       0.74229970       0.49226980
H        0.64954973      -0.87541964       0.33289987
H        2.92055893       0.00106000       1.05684960
H        2.79937886       2.07332923      -0.97727959
H        3.30069874       0.08922996      -3.01737894
H        1.65316930       0.01766999      -2.37262917
H        2.94844885      -2.00427916      -1.04916958
H        5.23799771       1.13627957      -1.67366932
H        5.07661824       1.09519954       0.12180995
