11
Properties=species:S:1:pos:R:3 atomization_energy=-1211.08 smiles=N.C.C.C.O.C.N.H.H.H.H pbc="F F F"
N        0.91815963      -0.02383999       0.18261992
C        2.28078918      -0.00073000       0.04252998
C        3.05911882       1.08691954       0.06930997
C        4.54033811       1.05403958      -0.07315997
O        5.15917800       2.11620914      -0.04275998
C        5.26502793      -0.19496993      -0.25386989
N        5.80819771      -1.21265948      -0.40189985
H        0.45089980      -0.80651971      -0.27306989
H        0.44129983       0.86386968       0.03790999
H        2.68875886      -1.00362959      -0.08335997
H        2.64167889       2.07792923       0.20909991
