16
Properties=species:S:1:pos:R:3 atomization_energy=-1566.03 smiles=N.C.C.C.C.C.O.H.H.H.H.H.H.H.H.H pbc="F F F"
N        0.95223962       0.00056000      -0.00869000
C        2.41660900       0.00735999       0.02296999
C        2.97738872       1.43281939       0.00000000
C        4.42138815       1.43281939       0.00000000
C        5.61154789       1.43281939       0.00000000
C        7.05554732       1.43281939       0.00000000
O        7.54505683       2.76717887      -0.00602000
H        0.62191978      -0.96467962      -0.00240000
H        0.62691978       0.40485986      -0.88635965
H        2.79346901      -0.56486976      -0.83389967
H        2.75042887      -0.51234979       0.92898963
H        2.60427886       1.98765923       0.86942968
H        2.60915894       1.95813925      -0.88981962
H        7.45399704       0.92056966      -0.88094967
H        7.45369728       0.93244966       0.88740967
H        7.04757719       3.24276878      -0.69268973
