15
Properties=species:S:1:pos:R:3 atomization_energy=-1473.27 smiles=N.C.N.C.C.C.O.H.H.H.H.H.H.H.H pbc="F F F"
N        0.90807963      -0.06365998       0.22962991
C        2.25185914       0.02223999       0.00994000
N        2.90463884      -1.05359957      -0.30860986
C        3.01690884       1.30410950       0.12706995
C        2.36767919       2.47772893       0.04762998
C        4.50318839       1.19613948       0.32703988
O        5.11571798       0.55214981      -0.78387966
H        0.51196980       0.65981974       0.81935965
H        0.54774978      -0.98082964       0.46027981
H        2.24743906      -1.83341923      -0.39042985
H        1.30202954       2.54660905      -0.13729995
H        2.90969884       3.41633862       0.11685995
H        4.72899812       0.62259974       1.23274947
H        4.96931791       2.18063915       0.43757984
H        4.58869841      -0.26923988      -0.90801964
