14
Properties=species:S:1:pos:R:3 atomization_energy=-1404.09 smiles=C.O.C.N.C.C.O.H.H.H.H.H.H.H pbc="F F F"
C        3.08196867      -0.67651972      -0.33152987
O        2.43045895       0.58844974      -0.31758986
C        3.17394871       1.71610930      -0.05793998
N        2.37138897       2.82898893       0.00611000
C        4.50926806       1.72491931       0.09496996
C        5.26563807       2.94402876       0.43584983
O        6.49202753       2.94769892       0.43787983
H        2.32375917      -1.44296941      -0.51593980
H        3.54715850      -0.88857966       0.63640977
H        3.81628846      -0.72893971      -1.14138953
H        1.44749939       2.59609903      -0.36004986
H        2.75398901       3.63640857      -0.47714983
H        5.12580820       0.84403966       0.00754000
H        4.68096838       3.84188848       0.69216974
