18
Properties=species:S:1:pos:R:3 atomization_energy=-1710.04 smiles=C.O.C.C.N.C.C.H.H.H.H.H.H.H.H.H.H.H pbc="F F F"
C        1.57761943      -0.13419995       0.29168989
O        2.98177878       0.06019997       0.38706984
C        3.35290860       1.38365945      -0.01334000
C        4.86428805       1.53229935       0.11484995
N        5.47322797       0.97345961       1.34420948
C        5.69907756       1.45689949      -1.14195955
C        5.49773791       2.77714898      -0.45719983
H        1.34704947      -1.15088955       0.62085973
H        1.24480952      -0.01834999      -0.74423969
H        1.04728959       0.57093978       0.93912963
H        2.86466882       2.11147919       0.64530975
H        3.02465869       1.56170944      -1.04445957
H        5.19762773      -0.01162000       1.39537949
H        5.03932822       1.39667949       2.16367921
H        5.20098778       1.28961951      -2.08947919
H        6.68033730       0.99895964      -1.07863954
H        6.34502741       3.20860868       0.06449997
H        4.86374806       3.50880870      -0.94400965
