20
Properties=species:S:1:pos:R:3 atomization_energy=-1858.9 smiles=C.N.C.C.C.C.O.H.H.H.H.H.H.H.H.H.H.H.H.H pbc="F F F"
C        1.24637952      -0.27792988       0.15682993
N        2.68796906      -0.06962997       0.07823997
C        3.07492888       1.36052951       0.12215995
C        2.54089905       2.09735911       1.35406945
C        4.62190823       1.49944935       0.02174999
C        5.39689776       0.89841963       1.19310949
O        5.07639820       0.87972965      -1.19028956
H        1.02785958      -1.33716944      -0.01199999
H        0.71180969       0.29910987      -0.60395979
H        0.85572967      -0.02831999       1.14743955
H        3.00276871      -0.43773982      -0.82103967
H        2.65388895       1.83777926      -0.77333973
H        2.78753897       1.57199938       2.28260899
H        1.45211945       2.20819903       1.30999954
H        2.96152895       3.10717884       1.41355945
H        4.87661796       2.56226898      -0.05989997
H        5.21020796      -0.17643994       1.28840945
H        5.14550821       1.38384946       2.13971910
H        6.47398736       1.01063961       1.02702960
H        5.06591788      -0.07952997      -1.02692961
