18
Properties=species:S:1:pos:R:3 atomization_energy=-1725.56 smiles=C.N.C.C.C.C.O.H.H.H.H.H.H.H.H.H.H.H pbc="F F F"
C        1.97321920      -0.58455980       0.58485976
N        3.43108865      -0.60179976       0.51563981
C        3.93006841       0.64363976      -0.08321997
C        5.46289803       0.68928970      -0.13149995
C        6.07882753      -0.41241983      -0.99162961
C        5.92917743       2.02924923      -0.67535975
O        5.18540783       2.92040879      -1.07381964
H        1.61796934      -1.52410943       1.01921963
H        1.52704934      -0.48486981      -0.41032983
H        1.61549940       0.23034991       1.22215950
H        3.71476853      -1.39639941      -0.05582998
H        3.57252864       1.49468937       0.51060980
H        3.52331850       0.75973970      -1.09581951
H        5.86384786       0.61323977       0.88694966
H        5.70496799      -0.36606985      -2.02067918
H        5.85996751      -1.40672947      -0.59066975
H        7.16931742      -0.31135987      -1.03545961
H        7.02442731       2.17815924      -0.67948972
