16
Properties=species:S:1:pos:R:3 atomization_energy=-1596.76 smiles=N.C.C.C.O.C.C.H.H.H.H.H.H.H.H.H pbc="F F F"
N        0.99967960       0.04671998      -0.00887000
C        2.45214910      -0.00660000      -0.01557000
C        2.99471883      -1.28528950       0.63576974
C        3.29171878      -0.91658963       2.09006913
O        4.48271827      -1.53972937       2.53496901
C        3.47430870       0.56229977       2.02401916
C        3.00306873       1.06012953       0.87365963
H        0.62782975      -0.72750968      -0.55617979
H        0.69106971       0.89809962      -0.47472981
H        2.82996898       0.09028997      -1.03860959
H        3.91057834      -1.60700933       0.12029995
H        2.29962898      -2.13077925       0.56911978
H        2.46961900      -1.18351952       2.76125893
H        5.22347806      -1.11815954       2.06801917
H        3.87095855       1.15218956       2.83793886
H        2.98180881       2.11262919       0.62831978
