14
Properties=species:S:1:pos:R:3 atomization_energy=-1483.97 smiles=O.C.C.C.C.C.N.H.H.H.H.H.H.H pbc="F F F"
O        1.54668942       0.16860994       1.30541948
C        2.38850913       0.05827998       0.43078982
C        2.99473877      -1.24152946      -0.09570996
C        3.96928851      -0.82341966      -1.17295958
C        5.19655785      -0.00713000      -0.86615965
C        3.91651848       0.67860972      -1.24080956
N        2.97113873       1.10546954      -0.26741991
H        2.19742902      -1.86243922      -0.51339980
H        3.50515872      -1.76691935       0.71568973
H        3.91614855      -1.39936948      -2.08443912
H        5.53761786       0.05707997       0.16090994
H        6.00025763      -0.00870000      -1.59406941
H        3.83234859       1.14786952      -2.21414925
H        2.71841888       2.06446925      -0.07493997
