16
Properties=species:S:1:pos:R:3 atomization_energy=-1685.56 smiles=C.C.C.C.C.C.N.H.H.H.H.H.H.H.H.H pbc="F F F"
C        0.96779963      -0.02798999      -0.00781000
C        2.44691903       0.07515997      -0.00032000
C        3.27488879       1.17879953       0.00418000
C        4.61029797       0.71215974       0.01067000
C        4.57036806      -0.66766976       0.00998000
C        5.67142761      -1.66086931       0.01502000
N        3.24846870      -1.04059959       0.00303000
H        0.50465980       0.96386963       0.00096000
H        0.61568978      -0.57425976       0.87312967
H        0.62371978      -0.55501976      -0.90350966
H        2.95245890       2.21215911       0.00295000
H        5.50657758       1.31841946       0.01535000
H        5.29121790      -2.68768897       0.02342999
H        6.30147756      -1.52604935       0.90027963
H        6.29772741      -1.53892935      -0.87476964
H        2.91293878      -1.99513922       0.00083000
