16
Properties=species:S:1:pos:R:3 atomization_energy=-1488.97 smiles=N.C.C.C.N.C.H.H.H.H.H.H.H.H.H.H pbc="F F F"
N        1.04097961       0.00618000       0.14934994
C        2.48031911       0.02023999      -0.07922997
C        3.13595873       1.06530963       0.84899968
C        4.13172827      -0.02412999       1.30394953
N        5.32063771       0.01183000       0.44908983
C        3.14188877      -1.08472956       0.77253971
H        0.56394976      -0.77903970      -0.29192988
H        0.56713980       0.84500969      -0.18438993
H        2.79508898       0.05994998      -1.12591961
H        2.50413892       1.42377950       1.67358933
H        3.55791866       1.94280925       0.34760987
H        4.34696809      -0.05659998       2.37507906
H        5.14202805       0.03989998      -0.55267977
H        5.95154760      -0.77353970       0.60017974
H        3.56902856      -1.92191925       0.21004992
H        2.51298894      -1.50444942       1.56983942
