15
Properties=species:S:1:pos:R:3 atomization_energy=-1499.26 smiles=N.C.C.C.C.C.H.H.H.H.H.H.H.H.H pbc="F F F"
N        0.99182964       0.03761999      -0.01218999
C        2.44542901       0.00342000      -0.01752999
C        2.99913892      -1.26832956       0.63856973
C        3.30923864      -0.89832962       2.08941913
C        3.46847859       0.58441976       2.01985923
C        2.98297887       1.07459959       0.87297966
H        0.63389977      -0.73853972      -0.56460980
H        0.67543974       0.88852964      -0.47249980
H        2.82367887       0.10323996      -1.04013960
H        3.92895841      -1.56125940       0.13148995
H        2.32321918      -2.12801925       0.56982977
H        4.22224832      -1.39123949       2.43539910
H        2.48483912      -1.16157956       2.76005884
H        3.87283842       1.18305951       2.82373892
H        2.95235872       2.12622922       0.62548976
