12
Properties=species:S:1:pos:R:3 atomization_energy=-1160.57 smiles=C.C.C.C.H.H.H.H.H.H.H.H pbc="F F F"
C        0.95371961      -0.00797000       0.00839000
C        2.44730913      -0.00063000       0.01295999
C        3.17477863       1.12625950      -0.01210999
C        4.66853804       1.15736954      -0.00929000
H        0.58673975      -1.03802960      -0.04619998
H        0.56085977       0.53226976      -0.85860965
H        0.55994981       0.44017983       0.92580963
H        2.94308883      -0.96848963       0.03747998
H        2.67236893       2.09108919      -0.03370999
H        5.10343802       0.15274994       0.00228000
H        5.02833819       1.69576938       0.87242965
H        5.03156803       1.67595936      -0.90190963
