16
Properties=species:S:1:pos:R:3 atomization_energy=-1604.07 smiles=C.C.C.C.C.C.H.H.H.H.H.H.H.H.H.H pbc="F F F"
C        1.25563945      -0.81350967       0.16704993
C        2.21244904       0.00538000      -0.28873988
C        3.17845863       0.74494968       0.59261977
C        4.61590830       0.39646984       0.33044986
C        5.48618770       1.29178943      -0.51524980
C        5.71175771       1.21065951       0.96905965
H        0.58554976      -1.32243948      -0.51893980
H        1.11865953      -0.99652963       1.22871949
H        2.31164903       0.15985994      -1.36084947
H        2.96295890       0.53760978       1.64804937
H        3.01460884       1.82037926       0.44957983
H        4.77488809      -0.67572973       0.27636988
H        5.06529816       2.20859922      -0.91233961
H        6.21559763       0.82289967      -1.16557952
H        6.59130726       0.68342975       1.32184953
H        5.43713804       2.06696922       1.57433937
