17
Properties=species:S:1:pos:R:3 atomization_energy=-1586.69 smiles=N.C.C.C.O.C.N.H.H.H.H.H.H.H.H.H.H pbc="F F F"
N        1.27474950      -0.10467996       0.77808967
C        2.22643904      -0.16292993      -0.33218987
C        3.16276867       1.01817959      -0.20047993
C        4.23473822       0.87961963       0.86030967
O        3.77269849       1.47443941       2.07076920
C        3.43298870       1.90747921      -1.39943950
N        2.53116890       2.36300904      -0.35650987
H        0.54531977      -0.79835969       0.61774975
H        0.80367966       0.80289970       0.70496975
H        1.68011928      -0.13278996      -1.28249948
H        2.78225894      -1.10602959      -0.30152989
H        5.15900793       1.38778949       0.56779977
H        4.48049826      -0.16884993       1.05702958
H        2.87714887       1.10221952       2.20408905
H        2.97232872       1.66171929      -2.34850908
H        4.37865838       2.43064896      -1.47748946
H        2.98663894       2.99890879       0.30712988
