14
Properties=species:S:1:pos:R:3 atomization_energy=-1410.52 smiles=N.C.O.C.C.C.O.H.H.H.H.H.H.H pbc="F F F"
N        1.30554943      -0.05537998       0.90272964
C        1.95400922       0.29745988      -0.25197990
O        1.57616941      -0.16867993      -1.32670943
C        3.14556876       1.29334947      -0.04361999
C        2.97764887       2.72129899      -0.57608980
C        3.39507870       3.15524870       0.82279968
O        3.27822864       1.80306933       1.32732953
H        1.61616933       0.31676988       1.79279932
H        0.53262977      -0.70369971       0.85824963
H        4.09560831       0.83461969      -0.34839985
H        1.95510926       2.99821892      -0.84790967
H        3.66427856       3.00400891      -1.37746952
H        4.42099805       3.52423850       0.91497963
H        2.70536881       3.83825844       1.32572950
