16
Properties=species:S:1:pos:R:3 atomization_energy=-1599.87 smiles=C.N.C.C.C.C.O.H.H.H.H.H.H.H.H.H pbc="F F F"
C        0.94667963       0.40896982       0.14265994
N        2.39572909       0.46759982       0.14832995
C        3.14347871      -0.77078967       0.00709000
C        3.24763878      -1.11268962      -1.44863942
C        2.79101887      -2.24374922      -2.00353920
C        3.06367869       1.66559939       0.28812990
O        4.28013816       1.81339927       0.30645987
H        0.51308981       1.41257940       0.16425994
H        0.61687977      -0.13866995       1.02993961
H        0.60282978      -0.10795996      -0.75691971
H        2.63854897      -1.55322934       0.58420975
H        4.15182847      -0.65160977       0.41765983
H        3.75491847      -0.38294984      -2.07682919
H        2.29296921      -3.00927885      -1.41709940
H        2.91693873      -2.42763915      -3.06650884
H        2.38392907       2.52740892       0.38952985
