18
Properties=species:S:1:pos:R:3 atomization_energy=-1718.54 smiles=N.C.C.C.C.C.O.H.H.H.H.H.H.H.H.H.H.H pbc="F F F"
N        0.67252973      -0.39742983      -0.02421999
C        2.08887914      -0.65232973      -0.25129990
C        2.63815887      -0.52000981      -1.64268935
C        2.97448893       0.51432980      -0.60032975
C        4.37421836       0.60848976      -0.06099998
C        4.41165826       1.23569947       1.32930945
O        3.91355838       0.32643988       2.30610911
H        0.48132982      -0.16287993       0.94897963
H        0.11817995      -1.22975947      -0.22749991
H        2.51635908      -1.44899937       0.35605987
H        1.96176929      -0.23303990      -2.43892896
H        3.40614873      -1.22106956      -1.95019927
H        2.51924903       1.49161938      -0.71935970
H        4.96071795       1.23068956      -0.74881969
H        4.84026813      -0.38485986      -0.03230999
H        3.82466838       2.15708907       1.37905946
H        5.44429768       1.47121941       1.60228935
H        2.96929873       0.19949992       2.11306913
