12
Properties=species:S:1:pos:R:3 atomization_energy=-1256.19 smiles=N.C.C.C.C.N.H.H.H.H.H.H pbc="F F F"
N        1.01939960      -0.02964999      -0.02556999
C        2.35634901       0.05843998      -0.00932000
C        3.19085870       1.15101950      -0.00057000
C        4.52302819       0.66695971       0.01339999
C        4.45918838      -0.70901973       0.01251999
N        3.13501880      -1.06701956      -0.00147000
H        0.43658982       0.80269966       0.00691000
H        0.50464980      -0.90284963       0.01853000
H        2.88048898       2.18667921      -0.00486000
H        5.42864810       1.25888947       0.02193999
H        5.23574792      -1.46175939       0.01936999
H        2.78350899      -2.01270917      -0.00815000
