16
Properties=species:S:1:pos:R:3 atomization_energy=-1657.83 smiles=C.C.C.C.C.C.N.H.H.H.H.H.H.H.H.H pbc="F F F"
C        0.95642965       0.06818998       0.00069000
C        2.44074902       0.03710999      -0.01886000
C        3.28015873       1.08898954       0.00185000
C        4.64089818       0.61295975       0.00826999
C        4.64110812      -0.72832969      -0.00497000
C        3.23336869      -1.24452955      -0.01419999
N        3.00235892      -2.05677920      -1.19236953
H        0.57853974       1.09422958       0.05756998
H        0.57570979      -0.47828979       0.86904966
H        0.54715977      -0.38887984      -0.90518962
H        3.00564881       2.13278907       0.01970999
H        5.51014807       1.25212952       0.01970999
H        5.51733799      -1.35840942      -0.00273000
H        3.03664872      -1.82187924       0.89567963
H        3.14790889      -1.47152940      -2.01362917
H        2.02532927      -2.33597907      -1.21333952
