17
Properties=species:S:1:pos:R:3 atomization_energy=-1590.64 smiles=N.C.C.N.C.C.O.H.H.H.H.H.H.H.H.H.H pbc="F F F"
N        1.05097955      -0.13814994      -0.09815996
C        2.51715896      -0.07489997      -0.02060999
C        3.33528856      -0.71431970      -1.12248954
N        2.64524887      -1.37308942      -2.23931904
C        3.25904869       0.78497971      -1.00935960
C        4.46036828       1.55883942      -0.58609978
O        5.23634796       1.89119930      -1.72884937
H        0.63373973       0.66116971       0.37874985
H        0.70431975      -0.96662963       0.38469985
H        2.92395884      -0.14108995       0.98627962
H        4.26716833      -1.19111948      -0.82762968
H        1.71963928      -0.94054962      -2.32836901
H        2.43886916      -2.34092905      -1.99424925
H        2.67530884       1.33253942      -1.74060927
H        5.09372781       0.99781961       0.10914995
H        4.15959826       2.49038914      -0.09685997
H        5.28050795       1.09317963      -2.28530918
