17
Properties=species:S:1:pos:R:3 atomization_energy=-1580.81 smiles=N.C.C.C.O.C.N.H.H.H.H.H.H.H.H.H.H pbc="F F F"
N        0.99036959       0.03621999       0.14549994
C        2.43273902      -0.02989999      -0.04570998
C        3.11754890       1.03305962       0.84374967
C        4.15934845      -0.06333997       1.21377958
O        5.36060798      -0.09760996       0.40106984
C        3.03793889      -1.10291961       0.89982966
N        3.58175867      -2.21362919       0.11555996
H        0.49373982      -0.78681970      -0.19305992
H        0.54791979       0.83845967      -0.30268989
H        2.76860883      -0.03846999      -1.08950959
H        2.54352910       1.38567949       1.70880935
H        3.51410866       1.90189929       0.31029988
H        4.44641841      -0.04738998       2.27144913
H        5.07910825       0.16367994      -0.49087980
H        2.43571905      -1.39894947       1.76549935
H        4.51426826      -2.04386918      -0.26233990
H        2.98519888      -2.54847908      -0.63941977
