18
Properties=species:S:1:pos:R:3 atomization_energy=-1714.03 smiles=C.N.C.C.C.C.O.H.H.H.H.H.H.H.H.H.H.H pbc="F F F"
C        1.11863960      -0.25600990      -0.02624999
N        2.56963907      -0.12609995       0.00282000
C        2.96813876       1.26938948      -0.15285994
C        4.46155828       1.35880950      -0.08391997
C        5.23545774       1.86872921      -1.05634960
C        6.72266738       1.96707922      -0.98494964
O        7.26694691       1.21297957      -2.05523922
H        0.84441968      -1.30714947       0.10518996
H        0.70504974       0.08254997      -0.98194961
H        0.65260975       0.31026989       0.78648972
H        2.96434875      -0.66424973      -0.76795971
H        2.55115909       1.87660926       0.65917977
H        2.59515910       1.67315936      -1.10172962
H        4.91648782       0.98751963       0.83261965
H        4.78090821       2.24787912      -1.96899921
H        7.12729721       1.58362933      -0.04310998
H        7.03814706       3.00822890      -1.09780953
H        6.92681750       0.30729988      -1.95545924
