14
Properties=species:S:1:pos:R:3 atomization_energy=-1448.7 smiles=C.O.C.C.C.C.N.H.H.H.H.H.H.H pbc="F F F"
C        1.10362954      -0.18532993      -0.18415993
O        2.52212888      -0.17177993      -0.09050997
C        3.02997884       1.15901954       0.02417999
C        4.53596824       1.16737952       0.12727995
C        5.30646779       0.06427998       0.11644996
C        5.15748789       2.44947893       0.24321990
N        5.64562775       3.49586864       0.33653988
H        0.77455968      -1.22418951      -0.27204991
H        0.77268972       0.36233986      -1.07180956
H        0.65610971       0.24804990       0.71543973
H        2.60173889       1.62698930       0.91917962
H        2.72268883       1.73354930      -0.85836968
H        4.87064831      -0.92716963       0.02982999
H        6.38908748       0.11775995       0.19331992
