18
Properties=species:S:1:pos:R:3 atomization_energy=-1726.13 smiles=C.N.C.C.C.C.O.H.H.H.H.H.H.H.H.H.H.H pbc="F F F"
C        2.96971886      -0.51696978       1.39471951
N        2.57970911       0.20088992       0.18559992
C        3.06161891       1.60123940       0.11514996
C        2.54195909       2.19132916      -1.20449947
C        2.56569892       2.45982906       1.28486950
C        4.59291840       1.60917938       0.02634999
O        5.32533813       2.36289903       0.66440971
H        2.62810902      -1.55426945       1.31548952
H        2.50996904      -0.09234996       2.29161898
H        4.05564838      -0.54634978       1.52267934
H        1.56029941       0.19740992       0.12479995
H        2.88307891       1.60833937      -2.06865921
H        2.90746874       3.21546881      -1.34799950
H        1.44642938       2.22124909      -1.22900954
H        3.01615892       2.15617917       2.23646921
H        1.47655937       2.40367904       1.38860944
H        2.82939896       3.51411850       1.13679950
H        5.02506797       0.89915966      -0.70107975
