12
Properties=species:S:1:pos:R:3 atomization_energy=-1283.02 smiles=O.C.C.C.C.O.N.H.H.H.H.H pbc="F F F"
O        1.00061960      -0.12408995      -0.00589000
C        2.31671913       0.02436999       0.00029000
C        3.12526871       1.13792956       0.00356000
C        4.46734827       0.68060976       0.01017999
C        4.44183809      -0.69634974       0.01077000
O        5.44531761      -1.56404943       0.01601999
N        3.12480872      -1.08148962       0.00469000
H        0.61251974       0.76969972      -0.00817000
H        2.79842883       2.16875915       0.00148000
H        5.36322769       1.28702945       0.01412999
H        5.09570811      -2.47051907       0.01488999
H        2.77370895      -2.02673916       0.00350000
