13
Properties=species:S:1:pos:R:3 atomization_energy=-1329.06 smiles=N.C.O.C.C.C.N.H.H.H.H.H.H pbc="F F F"
N        1.24914949       0.15157994       0.29883988
C        2.38982908      -0.06406997      -0.25026990
O        2.60752888      -1.24794953      -0.89494964
C        3.98927844      -1.32227950      -1.25049946
C        4.54405798       0.01491000      -0.91883967
C        3.98102847       1.24928953      -1.54816934
N        3.48293869       0.77825968      -0.25074990
H        1.30226951       1.07600962       0.73565973
H        4.46265844      -2.11884928      -0.66854971
H        4.07662846      -1.54822940      -2.31725912
H        5.48752808       0.02570999      -0.39718984
H        4.53886803       2.17186912      -1.47267940
H        3.26588864       1.17677949      -2.35678908
