18
Properties=species:S:1:pos:R:3 atomization_energy=-1708.98 smiles=C.N.C.C.C.C.O.H.H.H.H.H.H.H.H.H.H.H pbc="F F F"
C        2.16533904      -0.77592972      -1.34954945
N        1.82077933       0.33075988      -0.46548982
C        3.00643886       1.05774961       0.06386998
C        3.77015852       0.33313987       1.14944950
C        3.78056845       1.95258923      -0.87705967
C        2.90296892       2.57443892       0.16592993
O        3.59776858       3.21593865       1.24661949
H        2.72925903      -0.43379982      -2.22267905
H        1.24752952      -1.25217948      -1.70799937
H        2.74587883      -1.54212942      -0.82792970
H        1.19459950       0.96489965      -0.95941964
H        4.64094814       0.89976967       1.49600945
H        4.14104838      -0.63149972       0.78873969
H        3.12074871       0.15159994       2.01241924
H        3.46267875       2.02564922      -1.90993919
H        4.85483824       2.02045914      -0.74903972
H        1.97684924       3.03481881      -0.16311994
H        3.75297855       4.15585845       1.05254956
