13
Properties=species:S:1:pos:R:3 atomization_energy=-1347.17 smiles=C.N.N.C.C.C.O.H.H.H.H.H.H pbc="F F F"
C        0.98941963       0.03194999      -0.00415000
N        2.42954905      -0.05414998      -0.00509000
N        3.15492874       1.08226958      -0.01042000
C        4.41775812       0.64993977      -0.01030000
C        4.50422800      -0.75261973      -0.00533000
C        3.20125878      -1.19377955      -0.00222000
O        2.73208893      -2.43782905       0.00243000
H        0.68269975       1.08099960       0.00660000
H        0.61494975      -0.47294981       0.88973963
H        0.61549978      -0.45520981      -0.90791966
H        5.22185809       1.37420940      -0.01397999
H        5.39173809      -1.36785948      -0.00435000
H        1.76080927      -2.43383893       0.00273000
