17
Properties=species:S:1:pos:R:3 atomization_energy=-1590.17 smiles=N.C.C.O.C.C.N.H.H.H.H.H.H.H.H.H.H pbc="F F F"
N        2.79411901      -1.07785959      -0.57585980
C        2.20823914       0.06544997       0.11339995
C        3.22735866       1.17370951       0.18421992
O        4.41168803       0.85335965       0.94989963
C        3.45417873       2.06751918      -1.00346962
C        2.78244895       2.61940889       0.22437991
N        3.50876857       3.59212848       1.04779961
H        2.24107905      -1.91028930      -0.38933985
H        3.72227842      -1.24492950      -0.18465992
H        1.92083927      -0.22267990       1.13071957
H        1.30226951       0.38374985      -0.41359982
H        4.21675835       0.88550967       1.90133924
H        2.84752896       1.90600926      -1.88751930
H        4.47227832       2.36282913      -1.22578954
H        1.71667931       2.81885883       0.13529994
H        4.50168803       3.35183872       1.06493959
H        3.19424876       3.55982856       2.01504916
