14
Properties=species:S:1:pos:R:3 atomization_energy=-1431.75 smiles=C.N.C.O.C.C.O.H.H.H.H.H.H.H pbc="F F F"
C        0.98564960      -0.17390994       0.40902985
N        2.36726916      -0.29973989      -0.01868999
C        2.82899876      -1.58063933      -0.29245988
O        2.17709920      -2.61597895      -0.21136992
C        3.04909874       0.88577967      -0.29558988
C        4.49620840       0.77329967      -0.70675973
O        2.51139900       1.99424925      -0.24185990
H        0.87714962       0.66526972       1.10313952
H        0.63423972      -1.08537956       0.90098963
H        0.36682985       0.01649999      -0.47371983
H        3.87463855      -1.61438939      -0.62873972
H        5.06056795       0.20162993       0.03476999
H        4.93488781       1.77463929      -0.76111970
H        4.57152828       0.31024989      -1.69401933
