18
Properties=species:S:1:pos:R:3 atomization_energy=-1723.02 smiles=C.O.C.C.C.N.C.H.H.H.H.H.H.H.H.H.H.H pbc="F F F"
C        1.85068929      -0.20832992      -1.50834945
O        2.15895910       0.22358991      -0.19050993
C        3.01181882       1.36391946      -0.16299994
C        2.30514898       2.63855907      -0.60741975
C        2.98892884       3.71515864       0.21040992
N        3.12653870       3.09222871       1.52127941
C        3.45891852       1.68113934       1.27305951
H        1.24114945      -1.11367952      -1.43828943
H        2.76561896      -0.44789981      -2.05907920
H        1.27578948       0.55220980      -2.04460914
H        3.90056836       1.18104957      -0.78015967
H        1.23126954       2.59185886      -0.38123985
H        2.40986898       2.81111882      -1.68348930
H        3.97351834       3.95539843      -0.20637992
H        2.39570915       4.63208828       0.26004990
H        3.84787857       3.54556856       2.07804921
H        4.54256822       1.53807937       1.36055941
H        2.97254876       1.04118961       2.01656921
