23
Properties=species:S:1:pos:R:3 atomization_energy=-2189.55 smiles=C.C.C.C.C.C.C.H.H.H.H.H.H.H.H.H.H.H.H.H.H.H.H pbc="F F F"
C        0.96867963      -0.10477996      -0.02334999
C        2.50000902       0.00733000      -0.04400998
C        3.02994882      -0.84341969      -1.20793950
C        3.03059882       1.48682938      -0.04205998
C        2.59161889       2.27438905      -1.29168951
C        2.51617891       2.23744901       1.20613950
C        4.57416817       1.50108938       0.01881999
H        0.53670978       0.38410984       0.85405967
H        0.66312976      -1.15666958       0.02074999
H        0.51619979       0.32882986      -0.92063961
H        2.86003879      -0.46862983       0.87898963
H        2.70555882      -0.45292981      -2.17777923
H        2.66080888      -1.87122930      -1.12875959
H        4.12188836      -0.90055966      -1.20478953
H        2.96713877       1.81745928      -2.21201907
H        2.97729889       3.29993872      -1.26073956
H        1.50227937       2.34290910      -1.36608950
H        2.75343893       1.68691936       2.12278919
H        1.43337944       2.39231909       1.17173955
H        2.97504885       3.22941870       1.28784953
H        4.94097808       0.90376963       0.86045968
H        4.95527819       2.52083897       0.14591995
H        5.02245786       1.10862961      -0.89916963
