16
Properties=species:S:1:pos:R:3 atomization_energy=-1566.35 smiles=N.C.C.O.C.C.C.H.H.H.H.H.H.H.H.H pbc="F F F"
N        1.14720955       0.14424994       0.95091961
C        2.18235904       0.20429993      -0.07575997
C        3.25538863       1.13788957       0.36676985
O        3.93790834       1.80489924      -0.70276974
C        3.13953880       2.63044889       0.16288994
C        3.75365858       3.52260869       1.15092954
C        3.22126865       3.88154839       2.32676897
H        0.43033982      -0.51812981       0.65755974
H        0.68344974       1.04926957       1.01177958
H        1.73788927       0.51860981      -1.02743957
H        2.60613904      -0.79455971      -0.22148991
H        3.85158859       0.74899973       1.18223956
H        2.21807906       3.01536886      -0.26144989
H        4.73357793       3.91670848       0.88723966
H        2.25083922       3.51545863       2.64482900
H        3.75548849       4.54809831       2.99749876
