14
Properties=species:S:1:pos:R:3 atomization_energy=-1400.83 smiles=C.O.N.C.C.C.C.H.H.H.H.H.H.H pbc="F F F"
C        1.15249955       0.01597999      -0.69284972
O        2.51554909      -0.09474996      -0.29994989
N        3.09406871       1.18378951      -0.34360985
C        4.32548814       1.08465953       0.01123999
C        5.01155816       2.34475919       0.00000000
C        5.60663803       3.37546878       0.00000000
C        6.32863749       4.62600811       0.00000000
H        0.70171973      -0.97932959      -0.65936971
H        1.08280957       0.40074985      -1.71482934
H        0.61163974       0.67171975      -0.00376000
H        4.85036794       0.16185994       0.30230988
H        5.64859769       5.47362766      -0.12905995
H        7.06098708       4.65823838      -0.81252967
H        6.86740711       4.77000801       0.94157964
