13
Properties=species:S:1:pos:R:3 atomization_energy=-1307.37 smiles=C.O.N.C.C.C.N.H.H.H.H.H.H pbc="F F F"
C        3.02361883      -0.90955962       0.71928974
O        2.68165901      -0.07941997      -0.38269984
N        3.26429869       1.16504950      -0.18791992
C        2.59911893       2.30436903       0.13866995
C        3.55258867       3.29584868       0.15883994
C        4.75113817       2.63916895      -0.19154992
N        4.57246796       1.33293948      -0.41114984
H        2.49096900      -1.85835927       0.60654977
H        2.71401898      -0.45588982       1.66707931
H        4.09749827      -1.12308958       0.73215971
H        1.53487943       2.30478916       0.31658987
H        3.40655877       4.34310843       0.37919985
H        5.74359788       3.05929873      -0.30080989
