14
Properties=species:S:1:pos:R:3 atomization_energy=-1492.52 smiles=N.C.C.C.O.C.C.H.H.H.H.H.H.H pbc="F F F"
N        1.02772956       0.04563998      -0.05189998
C        2.39519894      -0.02175999      -0.08745997
C        3.13719869      -1.13198956      -0.12298995
C        4.53567806      -0.69286971      -0.17559993
O        5.47444774      -1.47457946      -0.18375992
C        4.65288795       0.79907966      -0.23327992
C        3.20451865       1.24827945      -0.09049996
H        0.56275977      -0.81190969       0.23818990
H        0.65099975       0.87693968       0.39793983
H        2.83179889      -2.16168908      -0.13107995
H        5.07385824       1.10064951      -1.19680955
H        5.27315805       1.16827959       0.58753977
H        2.91709896       1.90402921      -0.91946961
H        3.06047888       1.79993929       0.84548968
