14
Properties=species:S:1:pos:R:3 atomization_energy=-1357.47 smiles=N.C.N.C.C.C.H.H.H.H.H.H.H.H pbc="F F F"
N        1.17303957       0.15244994       0.49196981
C        2.41486917       0.21526991       0.15457994
N        3.26625881       1.26919947       0.32866988
C        2.70743894       2.59171907       0.33378988
C        3.95221855       3.04885877      -0.42830982
C        4.18869836       1.56750940      -0.72730971
H        0.80133966      -0.77383972       0.25638990
H        2.90742887      -0.65984977      -0.30622988
H        2.58766890       3.00012882       1.33999946
H        1.77689930       2.68985902      -0.23558991
H        3.76840861       3.68391851      -1.29873952
H        4.72137822       3.50776859       0.20255993
H        3.84603857       1.24505945      -1.71642938
H        5.19695804       1.19618957      -0.53046982
