16
Properties=species:S:1:pos:R:3 atomization_energy=-1564.48 smiles=O.C.C.C.C.C.N.H.H.H.H.H.H.H.H.H pbc="F F F"
O        0.99756961       0.01989999      -0.09587996
C        2.42312898      -0.05724998       0.04185999
C        3.12879883      -0.80244967      -1.04457961
C        3.22904878       0.70403972      -0.98558961
C        4.52042817       1.42737938      -0.62033974
C        5.86555765       1.04756962      -1.19579947
N        5.17358813       2.24014921      -1.65194940
H        0.66255975       0.87991965       0.21060992
H        2.82646889      -0.14552994       1.04625957
H        2.53056911      -1.23698952      -1.83753930
H        3.99522842      -1.39144943      -0.77127970
H        2.63856891       1.23019954      -1.73778934
H        4.53014797       1.87345928       0.37205985
H        5.91356771       0.22806991      -1.90252923
H        6.74943721       1.19384958      -0.58820977
H        5.58043797       3.08233884      -1.24271945
