15
Properties=species:S:1:pos:R:3 atomization_energy=-1443.77 smiles=N.N.C.C.C.C.O.H.H.H.H.H.H.H.H pbc="F F F"
N        0.69011974       1.47613937       0.09789996
N        1.90609921       0.91777963       0.29420989
C        2.88429892       1.73948930       0.07632997
C        4.28738814       1.31126953       0.24336990
C        5.28652807       2.17442903       0.01368999
C        6.72954744       1.82710931       0.16010994
O        7.36367709       2.03597915      -1.09008958
H       -0.02346999       0.74295973       0.12713995
H        0.44998984       2.10197917       0.87127964
H        2.72058893       2.78532880      -0.24378991
H        4.44797831       0.28446990       0.55192977
H        5.07739794       3.19641881      -0.29268987
H        6.88767739       0.78830972       0.46676980
H        7.20062719       2.48042912       0.90023964
H        6.92577739       1.45062943      -1.73183937
