16
Properties=species:S:1:pos:R:3 atomization_energy=-1562.68 smiles=N.C.O.C.C.C.O.H.H.H.H.H.H.H.H.H pbc="F F F"
N        0.72069970       0.21501992       0.47995982
C        1.86434924      -0.49239981       0.70522972
O        1.83178930      -1.59619934       1.23984957
C        3.13554869       0.21498992       0.28885990
C        4.33133819      -0.73423973       0.19371993
C        4.29669816      -1.61493935      -1.05379961
O        3.09188882      -2.35359911      -1.16446951
H        0.69841974       0.99179961      -0.16719993
H       -0.15104994      -0.26383989       0.66757975
H        3.34306869       0.97316962       1.05439959
H        2.98192892       0.73191974      -0.66400976
H        4.37166830      -1.37164950       1.08552957
H        5.25689782      -0.14647993       0.17757994
H        5.13240818      -2.32052908      -1.03971959
H        4.39417826      -1.00064962      -1.95513929
H        2.83678899      -2.66166907      -0.27061988
