15
Properties=species:S:1:pos:R:3 atomization_energy=-1482.38 smiles=N.C.C.C.N.C.O.H.H.H.H.H.H.H.H pbc="F F F"
N        1.49684946      -0.24178990      -0.98506962
C        2.53981907      -0.11150996       0.01882999
C        2.98259886       1.31284950       0.09402996
C        4.24671840       1.71426929      -0.08820997
N        4.60091831       3.03228869      -0.00385000
C        5.86636764       3.52125872      -0.18316992
O        6.14586740       4.70999808      -0.10194996
H        1.18588954      -1.21126952      -1.01995959
H        1.89070928      -0.04121998      -1.90358927
H        3.37061873      -0.78376971      -0.22146991
H        2.14204912      -0.41274984       0.99365961
H        2.20419907       2.03725923       0.32345988
H        5.03965777       1.00491957      -0.31382987
H        3.89718839       3.73367849       0.20084992
H        6.61911719       2.74801885      -0.40912984
