16
Properties=species:S:1:pos:R:3 atomization_energy=-1549.52 smiles=C.N.C.C.O.C.O.H.H.H.H.H.H.H.H.H pbc="F F F"
C        1.06686955      -0.33308988      -0.38408984
N        2.40222914      -0.36039984       0.19189992
C        3.02008872      -1.67227935       0.31266987
C        3.08249882       0.83982964       0.34352986
O        2.57867909       1.93674926       0.07992997
C        4.52091820       0.79230968       0.86833967
O        5.09272808       2.09206912       0.97212964
H        0.60748977       0.65499978      -0.29740989
H        0.43545982      -1.05885954       0.13662995
H        1.13840950      -0.60041977      -1.44198949
H        2.32406903      -2.35037911       0.81564968
H        3.94786836      -1.64380932       0.88531967
H        3.23472875      -2.04809913      -0.69222974
H        5.14341790       0.20949992       0.18338992
H        4.53062841       0.34255987       1.86607922
H        4.39264813       2.71037885       0.67497974
