16
Properties=species:S:1:pos:R:3 atomization_energy=-1488.22 smiles=N.C.C.C.C.N.H.H.H.H.H.H.H.H.H.H pbc="F F F"
N        2.30405916      -0.46542983      -1.40385946
C        2.42092916       0.06695997      -0.04420998
C        3.20741869       1.37587945      -0.03912999
C        2.48152904       2.63757901      -0.56156977
C        3.15174886       3.34375857       0.62680976
N        3.22930868       2.02841918       1.30215949
H        1.74380933      -1.31667951      -1.37662951
H        3.22543867      -0.74731970      -1.73598934
H        2.92379886      -0.67867974       0.58348979
H        1.41410940       0.21406992       0.36403985
H        4.21693826       1.25679954      -0.45768982
H        1.38745944       2.60364904      -0.49791981
H        2.77531882       2.98660890      -1.55456935
H        4.13114841       3.77923841       0.39626984
H        2.54053897       4.08958844       1.14192952
H        4.08428848       1.87736928       1.83482926
