13
Properties=species:S:1:pos:R:3 atomization_energy=-1344.54 smiles=N.N.C.C.C.C.O.H.H.H.H.H.H pbc="F F F"
N        1.14478956      -0.09906996       0.31426988
N        2.52611899      -0.07703997       0.08562997
C        3.30082869      -1.25784949      -0.16889993
C        4.62529805      -0.65177978      -0.49993982
C        4.60784833       0.68735974      -0.48722980
C        3.23633863       1.09648958      -0.14111994
O        2.83781901       2.24577922      -0.08581997
H        0.75402970       0.72269974      -0.16231993
H        1.00053961       0.10783996       1.30599946
H        2.88299892      -1.81213925      -1.01361958
H        3.34225871      -1.87791923       0.73072968
H        5.49795794      -1.24583953      -0.73009974
H        5.40183791       1.38200946      -0.69333974
