16
Properties=species:S:1:pos:R:3 atomization_energy=-1593.4 smiles=C.N.C.C.C.C.O.H.H.H.H.H.H.H.H.H pbc="F F F"
C        1.02833958       0.01334999       0.01295999
N        2.46539901      -0.16646993       0.23376991
C        2.93322873      -1.54928944       0.10372996
C        3.36568867       0.88988964       0.16043994
C        3.11682874       2.20202902       0.07570997
C        4.23390855       3.16216863       0.01455999
O        4.03599833       4.36828807      -0.07388997
H        0.64234978       0.85431964       0.59850974
H        0.46244983      -0.87250963       0.32095987
H        0.82776966       0.19653992      -1.04777961
H        2.22550920      -2.25124901       0.55723977
H        3.89449854      -1.68917937       0.61035979
H        3.05416883      -1.80835933      -0.95314965
H        4.39795819       0.54130978       0.18768992
H        2.12152904       2.62290898       0.04899998
H        5.25050778       2.73720898       0.05053998
