13
Properties=species:S:1:pos:R:3 atomization_energy=-1312.75 smiles=N.C.C.C.N.O.C.H.H.H.H.H.H pbc="F F F"
N        0.95692964       0.02106999       0.24179991
C        2.33253904       0.07146997       0.10443996
C        3.03391875       1.21307949       0.10451996
C        4.47836808       1.06209960      -0.14306994
N        5.16926772      -0.02480999      -0.01350999
O        4.42161828      -1.09819963       0.53226976
C        3.10588867      -1.22810947      -0.02692999
H        0.51764978      -0.79318968      -0.18328993
H        0.47278983       0.89060967       0.03117999
H        2.61062903       2.20078907       0.20060993
H        4.98828817       1.97062927      -0.50320981
H        2.60462909      -2.02489917       0.53286980
H        3.17979876      -1.53891938      -1.07496963
