15
Properties=species:S:1:pos:R:3 atomization_energy=-1469.15 smiles=N.C.N.O.C.C.C.H.H.H.H.H.H.H.H pbc="F F F"
N        1.20349948       1.51986938      -0.48627980
C        2.41823906       1.65478939       0.08531996
N        2.63895901       2.21791908       1.21667950
O        3.40402864       1.14209959      -0.68824972
C        4.76094831       1.22898948      -0.20965991
C        5.80587777       0.70167973      -1.15498955
C        5.65963768       2.18095911      -0.94903962
H        1.25595953       1.32693943      -1.47990945
H        0.52459980       2.22757907      -0.24828990
H        1.74544936       2.49730907       1.62277941
H        4.94383800       1.07426954       0.85016967
H        5.47410759       0.28172990      -2.09675920
H        6.66967731       0.20962992      -0.72465973
H        6.41988754       2.69688897      -0.37519986
H        5.22836773       2.76885889      -1.74993935
