14
Properties=species:S:1:pos:R:3 atomization_energy=-1438.58 smiles=O.C.C.C.C.C.N.H.H.H.H.H.H.H pbc="F F F"
O        0.98620959      -0.14968993      -0.01872999
C        2.19840908      -0.06028998       0.01221000
C        3.18908884      -1.20769953       0.05941998
C        4.49219836      -0.37950984      -0.02552999
C        4.32433852       0.72824971      -1.12915954
C        3.23306867       1.15907959      -0.08421996
N        4.31890835       0.79609969       0.95252961
H        3.07031879      -1.86013922      -0.80828969
H        3.11078869      -1.75420929       1.00188958
H        5.44305773      -0.91119964       0.02793999
H        3.96174834       0.39433985      -2.10505913
H        5.16775777       1.41451944      -1.26806953
H        2.85842892       2.17931921      -0.07212997
H        5.10586798       1.44709945       0.97229964
