13
Properties=species:S:1:pos:R:3 atomization_energy=-1324.01 smiles=N.N.C.C.C.C.O.H.H.H.H.H.H pbc="F F F"
N        1.11457959       0.12653995       0.40626985
N        2.39307911       0.04993998      -0.03410999
C        3.00068874       1.18689949      -0.20475992
C        4.43250839       1.27871955      -0.66452976
C        4.57356812       2.74722880      -0.69645976
C        3.42366859       3.28705872      -0.32005987
O        2.40741910       2.41074911      -0.00319000
H        0.59331979      -0.71354971       0.15607994
H        0.61391974       0.93880961       0.04125998
H        4.54795802       0.82945965      -1.65337936
H        5.10029801       0.81327966       0.06342998
H        5.46619802       3.28607867      -0.97579960
H        3.16736867       4.32932812      -0.22410992
