14
Properties=species:S:1:pos:R:3 atomization_energy=-1470.81 smiles=C.O.C.C.C.C.N.H.H.H.H.H.H.H pbc="F F F"
C        3.19514883      -1.10847960       0.50291979
O        2.41686915       0.05851998       0.27608989
C        3.05698889       1.22626948       0.16167995
C        2.51510903       2.47866911      -0.04895998
C        3.57364849       3.41668861      -0.10203996
C        4.74347790       2.71591904       0.07706997
N        4.42173839       1.39189946       0.23548991
H        2.51387891      -1.96128923       0.57324974
H        3.74488856      -1.03500957       1.44710941
H        3.88062839      -1.29014953      -0.33142988
H        1.45846937       2.68551892      -0.15259995
H        3.48898858       4.48410811      -0.25433989
H        5.77448777       3.04219874       0.10545995
H        5.09364808       0.65348976       0.38361984
