12
Properties=species:S:1:pos:R:3 atomization_energy=-1246.86 smiles=C.C.O.C.C.C.H.H.H.H.H.H pbc="F F F"
C       -1.40019939       0.05650998      -0.38613984
C       -0.41396983      -0.75113968       0.54633981
O       -0.56752978       0.46268983       1.45576942
C       -0.34700986       1.12806959       0.10194996
C        0.97767960       0.66144974      -0.38389983
C        0.93163961      -0.64195974      -0.07561997
H       -1.40187942      -0.19519993      -1.44994940
H       -2.42326903       0.17985992      -0.01830999
H       -0.73523973      -1.68819931       0.99984961
H       -0.59720973       2.18771906       0.08279997
H        1.76682926       1.23329955      -0.84129966
H        1.67256928      -1.40983945      -0.21579992
