17
Properties=species:S:1:pos:R:3 atomization_energy=-1581.98 smiles=N.C.C.O.C.N.C.H.H.H.H.H.H.H.H.H.H pbc="F F F"
N        2.02101919      -0.51768981      -1.33045945
C        2.29550917       0.01594999       0.00928000
C        3.15396887       1.28328953      -0.07180998
O        4.39070820       0.98556961      -0.78762969
C        2.40229904       2.56927900      -0.51314980
N        3.08033887       3.31157876       0.57528978
C        3.32681881       2.02962924       1.27571946
H        1.64622931      -1.46134947      -1.24360955
H        2.92326897      -0.61662978      -1.80443924
H        2.82454890      -0.74667973       0.59175976
H        1.34393949       0.21305992       0.51490981
H        4.82022798       1.85065926      -0.89561964
H        1.31233954       2.53577899      -0.40200983
H        2.63651897       2.93354894      -1.51783938
H        3.93098841       3.78982850       0.27987990
H        4.31699821       1.95364927       1.73598934
H        2.57302889       1.80039929       2.03846916
