18
Properties=species:S:1:pos:R:3 atomization_energy=-1717.96 smiles=C.O.C.C.C.C.N.H.H.H.H.H.H.H.H.H.H.H pbc="F F F"
C        3.06320885      -0.26147989       0.73474970
O        2.29648897       0.89279965       0.41256984
C        2.95524892       2.07614915       0.13575994
C        1.97127928       3.17513871      -0.15983994
C        4.29597851       2.22947913       0.13091995
C        5.08721817       3.46565853      -0.15609994
N        5.94657768       3.76077861       0.98224963
H        2.36721919      -1.08240962       0.93121961
H        3.65519868      -0.09926996       1.64116931
H        3.69985853      -0.55529978      -0.10581996
H        1.36072948       3.37407869       0.72727969
H        1.30261949       2.86595899      -0.97071961
H        2.43008904       4.11684830      -0.46373981
H        4.93353784       1.37629946       0.34758987
H        4.47087838       4.33957832      -0.37361986
H        5.71320761       3.28468883      -1.03675961
H        5.35838798       3.99030846       1.78280928
H        6.48426733       4.60191805       0.78102971
