16
Properties=species:S:1:pos:R:3 atomization_energy=-1676.92 smiles=C.N.C.C.C.C.C.H.H.H.H.H.H.H.H.H pbc="F F F"
C        0.99067964       0.03574999      -0.00967000
N        2.43695901       0.00060000      -0.00182000
C        3.23466870       1.11642955       0.00812000
C        4.54724846       0.70466973       0.01403000
C        4.54154830      -0.70821971       0.00709000
C        3.22385883      -1.13019952      -0.00311000
C        2.69595888      -2.52134893      -0.01421000
H        0.64872972       1.07393962      -0.00398000
H        0.62769974      -0.47575980       0.88526964
H        0.63785973      -0.46296982      -0.91580961
H        2.80989880       2.11162920       0.01024999
H        5.41394778       1.35210947       0.02226999
H        5.40882798      -1.35622941       0.00896999
H        1.60382933      -2.56349909      -0.00772000
H        3.05618874      -3.06605868       0.86457968
H        3.04549873      -3.04748887      -0.90847964
