17
Properties=species:S:1:pos:R:3 atomization_energy=-1560.03 smiles=C.N.C.C.N.O.C.H.H.H.H.H.H.H.H.H.H pbc="F F F"
C        0.96794964      -0.23774990      -0.27214989
N        2.36791916      -0.06734997       0.09444996
C        2.79003882       1.32312948      -0.11076996
C        4.23808817       1.43861948       0.29509989
N        5.16116788       1.66199938      -0.58416976
O        6.40056754       1.71509934       0.07260997
C        7.41183704       1.96994924      -0.89579962
H        0.67293971      -1.27833954      -0.10837996
H        0.79740967      -0.00079000      -1.32707947
H        0.31835988       0.39031983       0.34591988
H        2.94132882      -0.66944971      -0.50008980
H        2.21253912       2.00136927       0.52692980
H        2.67729898       1.62134932      -1.15877957
H        4.46940830       1.31118954       1.36832945
H        8.37720646       2.00972926      -0.38512986
H        7.23219737       2.93148891      -1.38675947
H        7.43748701       1.16598955      -1.63780939
