16
Properties=species:S:1:pos:R:3 atomization_energy=-1491.69 smiles=C.O.C.O.N.C.C.H.H.H.H.H.H.H.H.H pbc="F F F"
C        2.58396897      -0.51545980      -1.30456951
O        2.62859905      -0.17842993       0.07460997
C        2.83217889       1.22385946       0.26619989
O        4.12623830       1.63909931      -0.17568993
N        4.23939827       3.03086882      -0.01977999
C        5.41773780       3.39123873      -0.40943982
C        5.83730766       4.82588828      -0.35909987
H        2.39176900      -1.58822933      -1.38804952
H        3.54051866      -0.29868987      -1.78896931
H        1.77511936       0.02230999      -1.80792923
H        2.74749880       1.42048947       1.33983949
H        2.04956921       1.78719934      -0.25642990
H        6.15600758       2.66656885      -0.79582970
H        5.04716816       5.45201801       0.06185998
H        6.07203780       5.16123803      -1.37262943
H        6.73853750       4.90880786       0.25388991
