17
Properties=species:S:1:pos:R:3 atomization_energy=-1562.12 smiles=C.N.C.C.O.N.C.H.H.H.H.H.H.H.H.H.H pbc="F F F"
C        1.07948952      -0.18089992       0.38208986
N        2.42884908      -0.17997992      -0.19896992
C        2.87044897      -1.56827939      -0.49049982
C        2.04817925      -2.28595919      -1.57148942
O        1.99407917      -1.51278935      -2.76745895
N        2.60796895       0.73187968      -1.19447952
C        3.76484846       1.30810946      -1.13917961
H        0.84620965       0.81428968       0.77791967
H        1.00689962      -0.88232967       1.22054950
H        0.31289987      -0.43031983      -0.35964986
H        2.86851889      -2.16111906       0.43186983
H        3.91573852      -1.52377938      -0.82150970
H        1.02436959      -2.47762900      -1.23645949
H        2.50623908      -3.24998874      -1.81338930
H        1.98999923      -0.57764977      -2.45913893
H        4.03159843       2.06574920      -1.89209924
H        4.52151824       1.08686958      -0.36616984
