13
Properties=species:S:1:pos:R:3 atomization_energy=-1296.98 smiles=C.N.N.C.C.O.C.H.H.H.H.H.H pbc="F F F"
C        1.47913946      -0.23297991       0.24193991
N        2.59048895       0.35948984       0.52797978
N        2.79816893       1.45511942      -0.24132990
C        2.78716880       2.75313891       0.47655981
C        4.02709835       3.10750888      -0.34512986
O        4.64419817       4.12740836      -0.57265980
C        4.18904835       1.63462939      -0.72373973
H        1.18922952      -1.13961955       0.79589972
H        0.78168968       0.11520996      -0.54042977
H        2.98273890       2.70571905       1.55231944
H        1.91455925       3.37637869       0.27209990
H        4.32510813       1.45360947      -1.79200927
H        4.96564800       1.12466956      -0.14521995
