11
Properties=species:S:1:pos:R:3 atomization_energy=-1158.3 smiles=N.C.C.C.C.C.H.H.H.H.H pbc="F F F"
N        1.01164963       0.00384000      -0.00774000
C        2.46999901       0.00000000       0.00000000
C        2.94996890      -0.78258968      -1.15021961
C        3.34139876      -1.42271945      -2.08923922
C        2.95201883       1.36116943       0.00000000
C        3.34929875       2.48306901       0.00000000
H        0.68590972       0.47990983       0.82927967
H        0.68648971      -0.95722960       0.05522998
H        2.80260895      -0.49775980       0.91895966
H        3.68476861      -1.98059926      -2.92945890
H        3.70035865       3.48884854      -0.01082000
