16
Properties=species:S:1:pos:R:3 atomization_energy=-1546.98 smiles=C.N.O.C.C.C.C.H.H.H.H.H.H.H.H.H pbc="F F F"
C        1.12596956       1.54317936       0.25679990
N        2.27963905       1.09029952      -0.09871996
O        3.22594863       2.11798908       0.04637998
C        4.49637848       1.63516938      -0.39602984
C        5.48298764       2.75898895      -0.33093986
C        6.32770740       2.97763878       0.89866963
C        6.96302704       2.47515893      -0.36900986
H        0.24249991       0.88781964       0.21601992
H        0.96780960       2.57739902       0.60683977
H        4.41063834       1.28772955      -1.43203943
H        4.80295793       0.79391968       0.23683990
H        5.12942814       3.63243865      -0.86756968
H        6.22842766       2.28526906       1.72727937
H        6.52906723       3.99985844       1.19877950
H        7.59453698       3.15806875      -0.92639964
H        7.29526706       1.44339939      -0.39552985
