17
Properties=species:S:1:pos:R:3 atomization_energy=-1612.67 smiles=C.N.C.N.C.C.O.H.H.H.H.H.H.H.H.H.H pbc="F F F"
C        0.95834963       0.06310998       0.63023977
N        2.27266916       0.19356993       0.04080998
C        2.99050894       1.36285941       0.02272999
N        2.46529909       2.54083899       0.09897996
C        4.50996803       1.25457953      -0.04287998
C        5.14546783       2.41454897      -0.79766969
O        5.01929817       3.62438852      -0.05687998
H        0.62037974      -0.97488963       0.55190978
H        0.22674992       0.69161972       0.11371996
H        0.98371959       0.33494987       1.69022932
H        2.82968889      -0.65184973       0.12932995
H        1.44651946       2.45858910       0.11891995
H        4.77685829       0.31136986      -0.53229979
H        4.87407799       1.22466957       0.99061959
H        4.68617801       2.55927911      -1.78068932
H        6.21400744       2.22769918      -0.94117963
H        4.05515835       3.69919843       0.12889996
