16
Properties=species:S:1:pos:R:3 atomization_energy=-1514.52 smiles=N.C.C.O.C.C.O.H.H.H.H.H.H.H.H.H pbc="F F F"
N        2.30140918      -0.48180982      -1.38465945
C        2.35660917       0.10702996      -0.04543998
C        3.49241852       1.12689954       0.09162997
O        3.25293875       2.34040899      -0.67793971
C        3.01225888       3.09212879       0.53388979
C        3.51134866       1.93374929       1.40793940
O        4.79569836       2.10619916       2.05264917
H        1.56158933      -1.18083950      -1.42209947
H        3.17260884      -0.96767965      -1.59058938
H        2.49834893      -0.69597976       0.68619971
H        1.39119949       0.57856977       0.16916994
H        4.46947845       0.69790971      -0.16474993
H        3.61531847       4.00358840       0.56844978
H        1.95364927       3.34457864       0.64701973
H        2.77204886       1.60620932       2.14653910
H        5.38758775       2.42962904       1.34877946
