17
Properties=species:S:1:pos:R:3 atomization_energy=-1627.89 smiles=C.N.C.O.C.C.N.H.H.H.H.H.H.H.H.H.H pbc="F F F"
C        1.49373947      -0.63498978       0.19179992
N        2.78272878      -0.02781999       0.37252985
C        3.78702863      -0.16184993      -0.56651976
O        3.71446851      -0.91014964      -1.53604937
C        5.03319809       0.68245972      -0.22265991
C        5.90433743       0.92065961      -1.44925940
N        4.61456842       1.97432920       0.38003986
H        0.94098962      -0.56824980       1.13131950
H        1.61167935      -1.68180927      -0.10104996
H        0.95753965      -0.09745996      -0.59482975
H        2.89024889       0.77876970       0.98495961
H        5.60320784       0.12070995       0.52675979
H        5.35390809       1.45455937      -2.23227900
H        6.24229730      -0.02966999      -1.87673921
H        6.79329742       1.50724941      -1.19481954
H        4.15807847       2.52892896      -0.34652986
H        5.45555772       2.49790912       0.62718978
