13
Properties=species:S:1:pos:R:3 atomization_energy=-1296.11 smiles=N.C.C.O.N.C.C.H.H.H.H.H.H pbc="F F F"
N        0.97638962      -0.00839000       0.68057973
C        2.36444910      -0.02838999       0.20005992
C        2.74205904       0.75019969      -1.03029962
O        4.13393844       1.11480959      -1.20029954
N        4.85376785      -0.08857996      -1.49558944
C        4.05192851      -1.09932957      -1.42802938
C        2.67788893      -0.74191969      -1.08805957
H        0.79796972       0.84560967       1.21137953
H        0.81084965      -0.77564969       1.33291942
H        3.11355878      -0.06887997       0.98880961
H        1.98858920       1.32597943      -1.55037939
H        4.34732842      -2.14291916      -1.60775939
H        1.87948924      -1.18971954      -1.66209930
