17
Properties=species:S:1:pos:R:3 atomization_energy=-1570.27 smiles=C.N.C.C.C.N.O.H.H.H.H.H.H.H.H.H.H pbc="F F F"
C        1.29570952      -0.16707993       0.38245984
N        2.69768886       0.08576997       0.68754975
C        3.09199884       1.48081936       0.42273983
C        2.38243906       2.49149890       1.31998946
C        4.58313804       1.58263943       0.69474970
N        5.41679812       1.88240922      -0.25056991
O        6.71067761       1.91082929       0.28222989
H        1.09165958      -1.23793954       0.48281980
H        1.04365962       0.12578994      -0.64346975
H        0.63076973       0.35028985       1.08060962
H        3.26763881      -0.51953981       0.09244996
H        2.91683881       1.72975928      -0.63091974
H        2.48057901       2.22598914       2.37947896
H        1.31700944       2.56346907       1.08127956
H        2.81627900       3.49031862       1.19518958
H        4.92155816       1.38737945       1.72891927
H        7.25278709       2.14990924      -0.49293980
