18
Properties=species:S:1:pos:R:3 atomization_energy=-1716.37 smiles=N.C.C.O.C.C.C.H.H.H.H.H.H.H.H.H.H.H pbc="F F F"
N        0.97320961      -0.08110996       0.11184995
C        2.43265903      -0.04365998      -0.09497996
C        2.81504888      -0.01715999      -1.56884940
O        2.07215917       1.00987959      -2.22423922
C        3.03497879       1.04803958       0.83078969
C        4.10261833       0.00868000       1.23893953
C        3.10287886      -1.09443952       0.82610970
H        0.68226972       0.00065000       1.08719962
H        0.53824976      -0.94046963      -0.22741992
H        2.57041903      -0.96776960      -2.05334914
H        3.88098847       0.17719992      -1.71609933
H        1.22065952       1.04983958      -1.74296932
H        2.40974912       1.36734952       1.67419934
H        3.42525854       1.94103927       0.33352988
H        5.00745828       0.03847998       0.62105977
H        4.39276823       0.01546000       2.29270905
H        3.54843858      -1.95889927       0.32478988
H        2.49576910      -1.45488941       1.66599933
