18
Properties=species:S:1:pos:R:3 atomization_energy=-1783.36 smiles=C.C.C.C.C.N.C.H.H.H.H.H.H.H.H.H.H.H pbc="F F F"
C        1.00448960       0.11353996       0.19136992
C        2.49337901      -0.06201997      -0.08386997
C        2.84926879      -1.50085937      -0.50855980
C        2.78813902      -1.50001936      -2.04165926
C        3.19708875      -0.10780996      -2.41750906
N        2.21253912       0.95901963      -2.45429896
C        2.98623873       0.78545970      -1.23134953
H        0.77469967       1.15977956       0.42035984
H        0.69791974      -0.49700981       1.04761958
H        0.38889984      -0.18237992      -0.66513977
H        3.04591886       0.19170992       0.82826966
H        2.20352913      -2.26338917      -0.06239998
H        3.88082849      -1.71590932      -0.19902992
H        3.46327854      -2.25117911      -2.46195898
H        1.77243935      -1.71627937      -2.39059894
H        4.09869836      -0.02098999      -3.00613884
H        2.55562888       1.75673929      -2.99242893
H        3.73003861       1.52643946      -0.97647963
