16
Properties=species:S:1:pos:R:3 atomization_energy=-1551.22 smiles=C.O.C.O.C.C.N.H.H.H.H.H.H.H.H.H pbc="F F F"
C        1.91050921       1.22114955      -1.38220943
O        3.14979885       0.95366964      -0.72468969
C        4.02977837       1.99604925      -0.75063969
O        3.82632847       3.07362887      -1.29019949
C        5.28129775       1.61166939      -0.00075000
C        6.24875749       2.78570881       0.08440997
N        7.44592699       2.41615909       0.83973969
H        1.28057949       0.33190988      -1.29108946
H        2.07520923       1.42277938      -2.44524910
H        1.39590951       2.05974914      -0.90230964
H        5.75112795       0.76988973      -0.52191980
H        4.99122783       1.29313953       1.00726960
H        5.76922767       3.64560857       0.56627979
H        6.54803750       3.10235881      -0.92125965
H        7.19365730       2.20274917       1.80470923
H        8.07239686       3.21996864       0.88585966
