17
Properties=species:S:1:pos:R:3 atomization_energy=-1581.53 smiles=C.N.C.C.N.C.O.H.H.H.H.H.H.H.H.H.H pbc="F F F"
C        2.77583888      -1.06052960      -0.75661969
N        2.25085915       0.15775993      -0.15244994
C        3.30684881       1.17998952       0.02961999
C        3.49679874       2.25329920      -1.01993959
N        2.63560906       2.25689921      -2.21649921
C        2.90451873       2.60403889       0.31983987
O        3.76654842       3.33008877       1.21349949
H        1.96413919      -1.78205935      -0.89072965
H        3.53994864      -1.52221934      -0.12278995
H        3.20717872      -0.85837965      -1.74226936
H        1.84728925      -0.07318997       0.75657969
H        4.19972826       0.83291968       0.54696976
H        4.51592810       2.58593891      -1.20036956
H        1.79356931       1.71914938      -1.98560917
H        3.07984884       1.70745938      -2.95132896
H        1.84387925       2.83021879       0.36038985
H        3.73451850       4.28123832       1.00846962
