18
Properties=species:S:1:pos:R:3 atomization_energy=-1705.29 smiles=C.O.C.C.C.C.N.H.H.H.H.H.H.H.H.H.H.H pbc="F F F"
C        2.04848924      -0.48715981      -1.37144940
O        2.24532906       0.05724998      -0.07454997
C        3.06476877       1.24456954      -0.01118999
C        2.41675913       2.57254896      -0.48799982
C        3.17494870       3.27622867       0.66002975
C        3.15612883       1.91892924       1.39215949
N        4.46173844       1.67012936       2.00219919
H        1.42871938      -1.38288947      -1.28227944
H        3.00982893      -0.76354972      -1.81344923
H        1.53587942       0.23600990      -2.01163916
H        4.04116835       1.06723959      -0.48500982
H        1.32574943       2.59998897      -0.38724984
H        2.68980906       2.89732881      -1.49535944
H        4.16188841       3.64764867       0.35699987
H        2.63046907       4.08712847       1.15172956
H        2.29489904       1.75731928       2.04821924
H        5.25971788       1.80169930       1.38449947
H        4.54658836       0.71749970       2.36236913
