13
Properties=species:S:1:pos:R:3 atomization_energy=-1347.27 smiles=C.N.C.C.O.C.N.H.H.H.H.H.H pbc="F F F"
C        2.90141885      -1.11516954       0.51077981
N        2.33476914       0.12346995       0.02459999
C        3.07496875       1.24521955       0.01412999
C        2.62797907       2.52273902      -0.21089992
O        3.70327863       3.35829865      -0.13546995
C        4.74000834       2.51533890       0.13104995
N        4.41971822       1.24501946       0.23328991
H        2.18473903      -1.92884927       0.36083985
H        3.12049864      -1.05077958       1.58170934
H        3.81723849      -1.37673940      -0.02934999
H        1.32386944       0.18331994       0.07563997
H        1.67387939       2.97844877      -0.42413983
H        5.71590756       2.96752888       0.23258992
