15
Properties=species:S:1:pos:R:3 atomization_energy=-1434.12 smiles=C.O.C.C.C.N.N.H.H.H.H.H.H.H.H pbc="F F F"
C        1.36464945       0.21928991      -0.65722975
O        2.74660883       0.32596988      -0.33933987
C        3.23601867       1.57805937      -0.04262998
C        2.54540897       2.73066881      -0.03030999
C        4.69369799       1.62870932       0.30077987
N        5.35292803       2.70923882       0.58808979
N        6.66066757       2.48521913       0.85644970
H        1.14575953      -0.83387967      -0.85724965
H        1.12496958       0.78992969      -1.56048941
H        0.74195969       0.53804978       0.18506993
H        1.49080940       2.79097900      -0.26311990
H        3.02978884       3.67030852       0.22226991
H        5.18955818       0.63907975       0.29356988
H        7.08433731       3.34802877       1.20662952
H        7.17486720       2.26839921      -0.00116000
