13
Properties=species:S:1:pos:R:3 atomization_energy=-1318.69 smiles=N.N.C.C.O.C.C.H.H.H.H.H.H pbc="F F F"
N        1.04832957       0.07862997      -0.33595986
N        2.34495903       0.05835998       0.05427998
C        2.95161889       1.20283951       0.05100998
C        4.38786847       1.31708943       0.47917980
O        4.66727840       2.72627900       0.38056985
C        3.50737873       3.29357871      -0.09872996
C        2.45034897       2.52319902      -0.32968987
H        0.70629973      -0.88298964      -0.41376983
H        0.46044982       0.50747979       0.38315984
H        5.04437787       0.76263968      -0.19722992
H        4.51825812       0.98679961       1.51339936
H        3.57656847       4.36111833      -0.24667990
H        1.47665942       2.77024898      -0.70487973
