18
Properties=species:S:1:pos:R:3 atomization_energy=-1796.04 smiles=C.C.C.C.C.C.N.H.H.H.H.H.H.H.H.H.H.H pbc="F F F"
C        0.99734964       0.00247000      -0.01046000
C        2.53145908      -0.00452000      -0.02108999
C        3.06672887      -1.22443957      -0.79356969
C        3.34124863      -0.66458975      -2.15203917
C        3.35580864       0.67268971      -2.13638908
C        3.08482885       1.22683949      -0.77465967
N        4.33513830       1.72397938      -0.21550991
H        0.62226976       0.87961963       0.52724979
H        0.61237976      -0.88940964       0.49517981
H        0.58074979       0.02301999      -1.02315959
H        2.86795896      -0.03360999       1.02280961
H        2.34366912      -2.04465922      -0.83286965
H        3.99748855      -1.59731944      -0.35285987
H        3.54715850      -1.27264948      -3.02239881
H        3.57338859       1.29661943      -2.99255888
H        2.35359911       2.04036922      -0.81941970
H        5.01375798       0.96392962      -0.19029992
H        4.18282838       1.99270927       0.75442970
