18
Properties=species:S:1:pos:R:3 atomization_energy=-1709.39 smiles=C.N.C.C.C.O.C.H.H.H.H.H.H.H.H.H.H.H pbc="F F F"
C        1.34572953      -0.71324975       0.23749990
N        2.74444887      -0.30557987       0.25407990
C        2.89502881       1.05077958      -0.26641989
C        4.33205834       1.46137938      -0.17652994
C        5.05818796       1.84543928      -1.23696946
O        6.35798765       2.26257919      -1.28851947
C        7.06761733       2.33243911      -0.05676998
H        1.26023944      -1.73977936       0.60805979
H        0.92935961      -0.68590972      -0.77519972
H        0.74083971      -0.07615997       0.89070966
H        3.28228865      -0.94035962      -0.33586987
H        2.30206903       1.75284936       0.33215988
H        2.53492889       1.10572957      -1.30118953
H        4.75656834       1.45042946       0.82150970
H        4.64921804       1.86410927      -2.24186910
H        8.07584674       2.69883899      -0.26979990
H        7.15685731       1.34137946       0.40047983
H        6.59062748       3.03895881       0.63074973
