15
Properties=species:S:1:pos:R:3 atomization_energy=-1481.16 smiles=N.C.C.C.N.C.O.H.H.H.H.H.H.H.H pbc="F F F"
N        2.83777888      -0.55052977       1.26373953
C        2.38584906       0.08522997       0.02958999
C        2.82971892       1.53254941      -0.05589998
C        1.93386928       2.53210909      -0.09144997
N        4.16929837       1.85468924      -0.11264996
C        5.24499788       1.00894962      -0.10730996
O        6.39951734       1.41793941      -0.16732994
H        2.44137910      -1.48716940       1.32084954
H        2.45845915      -0.03443999       2.05708919
H        1.29259954       0.01199999      -0.01922999
H        2.77307888      -0.46927980      -0.83277970
H        0.86632966       2.33700908      -0.05374998
H        2.23207915       3.57375851      -0.15747994
H        4.43629840       2.83058896      -0.15631994
H        5.00781810      -0.06330997      -0.06646998
