13
Properties=species:S:1:pos:R:3 atomization_energy=-1327.79 smiles=N.C.C.C.C.N.O.H.H.H.H.H.H pbc="F F F"
N        2.03008924      -0.40616983      -1.25174951
C        2.60750895      -0.01231000       0.03115999
C        2.92068888       1.43426941       0.05197998
C        2.20721922       2.57556911      -0.22774990
C        3.12153876       3.61561850       0.00724000
N        4.31074847       3.15829888       0.40786985
O        4.18163839       1.77872933       0.43569981
H        1.88170925      -1.41378945      -1.24874954
H        2.71632882      -0.22682990      -1.98467920
H        3.50985865      -0.60480976       0.21752992
H        1.89413921      -0.23998991       0.83051969
H        1.18088959       2.63450890      -0.55814980
H        2.97846895       4.68198830      -0.09344996
