15
Properties=species:S:1:pos:R:3 atomization_energy=-1439.64 smiles=N.C.N.C.C.C.O.H.H.H.H.H.H.H.H pbc="F F F"
N        1.13001961       0.07255997       0.47178981
C        2.28956904       0.22646991      -0.07028997
N        3.16681884       1.25120952       0.14736994
C        2.78374896       2.51631895       0.74117973
C        3.24382883       3.52136873      -0.28430989
C        4.44802828       2.81789896      -0.85805970
O        4.10262842       1.42442950      -0.89179966
H        0.71096975      -0.79553970       0.11981996
H        2.67250897      -0.52299981      -0.78645969
H        3.32030867       2.64780902       1.68785930
H        1.71052937       2.60786902       0.93700960
H        2.47679908       3.63518855      -1.05853959
H        3.46884876       4.50631831       0.13116995
H        4.68449799       3.16013888      -1.86933922
H        5.33411774       2.93918880      -0.22428990
