18
Properties=species:S:1:pos:R:3 atomization_energy=-1717.28 smiles=C.O.C.C.C.C.N.H.H.H.H.H.H.H.H.H.H.H pbc="F F F"
C        1.76038927       0.24362990      -1.85453923
O        3.03200885       0.37045985      -1.23031952
C        3.22877878       1.44193940      -0.37655987
C        2.27858910       2.30526909       0.02431999
C        4.67128794       1.58927940       0.08652996
C        5.09722815       0.39839983       0.94776964
N        5.56161759       1.72399931      -1.07216964
H        1.80119931      -0.61801974      -2.52738898
H        1.52894940       1.12909961      -2.45572892
H        0.97664964       0.05473998      -1.11408956
H        1.24368954       2.23611922      -0.28545989
H        2.52372891       3.12973876       0.68709972
H        4.78218804       2.49793890       0.69028975
H        5.05470781      -0.54590978       0.39279984
H        4.44812820       0.30138988       1.82530930
H        6.12378740       0.52645980       1.30973952
H        5.35383794       0.94924962      -1.70430927
H        6.52572738       1.59358935      -0.77599968
