14
Properties=species:S:1:pos:R:3 atomization_energy=-1396.44 smiles=C.C.C.C.C.O.H.H.H.H.H.H.H.H pbc="F F F"
C       -0.02034999       0.84761968      -0.05012998
C       -0.74470972      -0.45966983      -0.14895994
C        0.76194968      -0.44526982      -0.03943999
C        1.50825937      -0.92312962       1.19695956
C        1.12096950      -2.14128910       1.99959917
O        2.17245908      -2.18991914       1.03354958
H        0.03867999       1.46622943      -0.93819966
H       -0.10667996       1.40601941       0.87475967
H       -1.17673950      -0.73413969      -1.10448961
H       -1.32575953      -0.78061967       0.70748972
H        1.29580945      -0.66096974      -0.96650965
H        2.07709919      -0.15870994       1.71988934
H        0.19760993      -2.65227907       1.75956932
H        1.39860945      -2.17450927       3.04543868
