14
Properties=species:S:1:pos:R:3 atomization_energy=-1356.81 smiles=C.O.C.C.C.N.O.H.H.H.H.H.H.H pbc="F F F"
C        1.24124950       0.08150996      -0.44523983
O        2.65207897       0.25784990      -0.41663985
C        3.13184876       1.50199941      -0.07554998
C        2.40419910       2.59053891       0.22674992
C        4.62310832       1.62425933      -0.04763998
N        5.27970806       2.69819882       0.25922990
O        6.65263738       2.43285913       0.17796993
H        1.03745958      -0.95528961      -0.72925973
H        0.77920971       0.73246970      -1.19466953
H        0.80472967       0.25108990       0.54452978
H        1.32235949       2.59541900       0.23133991
H        2.88294896       3.53159850       0.48383982
H        5.15753785       0.69452974      -0.31711986
H        7.04574728       3.29005869       0.42669982
