17
Properties=species:S:1:pos:R:3 atomization_energy=-1564.22 smiles=N.C.C.C.O.N.C.H.H.H.H.H.H.H.H.H.H pbc="F F F"
N        0.90270965      -0.37159985       0.14294995
C        2.36002901      -0.28038989       0.17451993
C        2.80798891       1.13945957      -0.16768994
C        4.32362846       1.28436950      -0.10068996
O        4.92591794       0.41596984      -1.06216963
N        6.31846753       0.55471980      -0.97559963
C        6.86435744      -0.23555990      -1.83575923
H        0.62319972      -1.33383942       0.33098988
H        0.56863978      -0.15922994      -0.79670970
H        2.77852898      -1.00118962      -0.53612980
H        2.71115906      -0.55547976       1.17484954
H        2.34997916       1.85567926       0.52494979
H        2.46683907       1.39061951      -1.17969960
H        4.68950828       1.03191959       0.90182964
H        4.60415824       2.31928912      -0.32846988
H        7.96041679      -0.27413990      -1.92817921
H        6.28123757      -0.89348965      -2.50208899
