16
Properties=species:S:1:pos:R:3 atomization_energy=-1484.15 smiles=N.C.C.C.C.N.H.H.H.H.H.H.H.H.H.H pbc="F F F"
N        1.02784961       0.01986999       0.07664997
C        2.48015913      -0.00844999      -0.05154998
C        3.10042872       1.04250962       0.89889963
C        4.15518826      -0.03803998       1.25626952
C        3.06748889      -1.08248961       0.90702962
N        3.66206864      -2.17309924       0.13780994
H        0.56557976      -0.77155972      -0.36865985
H        0.59917975       0.85627969      -0.31566987
H        2.86572886       0.01871999      -1.07640956
H        2.48261911       1.34050942       1.75582926
H        3.49517852       1.94210928       0.41921984
H        5.03298815      -0.01528000       0.59801978
H        4.49464799      -0.03527999       2.29576907
H        2.44919910      -1.39043947       1.75769929
H        4.22581830      -1.87873931      -0.65791975
H        2.96918872      -2.82218885      -0.23159991
