16
Properties=species:S:1:pos:R:3 atomization_energy=-1565.99 smiles=N.C.C.C.C.C.O.H.H.H.H.H.H.H.H.H pbc="F F F"
N        2.05210918      -0.65094973      -1.15907959
C        2.99150892      -0.30130989      -0.10567996
C        3.07915871       1.18464958       0.00374000
C        4.21506824       1.89022921      -0.12554995
C        4.33357839       3.34740879      -0.02322999
C        4.41709801       3.97352843       1.34601945
O        5.53520759       3.97542849       0.45198981
H        1.99571920      -1.66552937      -1.22884956
H        2.42618901      -0.33054988      -2.05162925
H        3.96747854      -0.75198973      -0.31619986
H        2.63654899      -0.70965971       0.84629967
H        2.14705916       1.70636931       0.21123992
H        5.14423797       1.36215945      -0.33102987
H        3.78490855       3.88958842      -0.78741968
H        4.47894844       3.33556865       2.21856908
H        3.90492839       4.91313787       1.50955938
