14
Properties=species:S:1:pos:R:3 atomization_energy=-1444.57 smiles=O.C.C.C.C.N.C.H.H.H.H.H.H.H pbc="F F F"
O        1.02806958       0.06917997      -0.04104998
C        2.22842918       0.03699999       0.01904999
C        3.47349872       1.05963963       0.06777997
C        4.07490832       0.03301999      -0.96561961
C        3.46150870      -1.03790962       0.03749999
N        4.25179833      -0.78571967       1.27531952
C        4.22459829       0.69415976       1.33778942
H        3.32299877       2.08860915      -0.24425991
H        5.16493822       0.03202999      -1.07587954
H        3.63110861       0.05185998      -1.96907920
H        3.31253863      -2.05836914      -0.30232987
H        3.81578859      -1.16402957       2.11762926
H        5.24273800       1.09549956       1.34375945
H        3.69501856       1.04068961       2.23121920
