18
Properties=species:S:1:pos:R:3 atomization_energy=-1665.99 smiles=N.C.C.O.C.C.O.H.H.H.H.H.H.H.H.H.H.H pbc="F F F"
N        0.82084966      -0.13978994      -0.10295996
C        2.28689912      -0.17237993      -0.31032988
C        2.64844894      -1.51646934      -0.97234960
O        1.91861926      -1.66880930      -2.18894917
C        2.66911891       1.04891959      -1.16789958
C        4.16342839       1.15865959      -1.44861949
O        4.89360793       1.21467952      -0.23027990
H        0.57075980       0.72868971       0.37135986
H        0.56084981      -0.88856963       0.54141980
H        2.77912903      -0.10981995       0.66690974
H        2.38013906      -2.35187896      -0.31598989
H        3.71621842      -1.59922933      -1.19013955
H        1.03698962      -1.29040943      -1.99120916
H        2.35403917       1.95662918      -0.63607972
H        2.12966925       1.03563958      -2.12296910
H        4.37911812       2.06569924      -2.02327920
H        4.52932840       0.30949987      -2.03195914
H        4.73327817       2.09060913       0.16235993
