16
Properties=species:S:1:pos:R:3 atomization_energy=-1603.6 smiles=C.N.C.C.C.C.O.H.H.H.H.H.H.H.H.H pbc="F F F"
C        1.12609951      -1.11041953       0.31811988
N        2.33892907      -0.42050982      -0.06239998
C        2.60377899       0.90133961       0.19651992
C        3.78309858       1.51320935       0.03716999
C        4.03028833       2.95042889       0.32663988
C        2.93775883       3.79350850       0.92920967
O        5.13584795       3.42312860       0.06298998
H        1.12551953      -2.12015913      -0.10348996
H        0.24378991      -0.58341976      -0.05947998
H        1.05395959      -1.19084949       1.40725949
H        3.14882889      -1.01132961      -0.23970990
H        1.72718929       1.43980947       0.54995976
H        4.64886831       0.97588962      -0.33376988
H        2.56956892       3.33570870       1.85090932
H        2.12562917       3.92485853       0.21015992
H        3.34141870       4.77853831       1.18230958
