15
Properties=species:S:1:pos:R:3 atomization_energy=-1435.39 smiles=C.N.C.C.O.N.C.H.H.H.H.H.H.H.H pbc="F F F"
C        2.44047903      -0.41690984      -1.68239935
N        2.40166897       0.06340997      -0.30616988
C        3.28545869       1.21634958      -0.09885996
C        3.42924865       1.63075938       1.35617945
O        3.56154870       3.05724879       1.32498954
N        2.85448876       3.51851865       0.18718992
C        2.68356891       2.49200911      -0.57843976
H        1.78088929      -1.28490949      -1.78078924
H        3.44994864      -0.72964971      -1.96919919
H        2.08636920       0.34129985      -2.38715916
H        2.69046890      -0.69701974       0.31057988
H        4.26555846       1.08291958      -0.57027981
H        4.30981837       1.18448948       1.82778934
H        2.54642889       1.38593940       1.95908928
H        2.19473917       2.56161898      -1.55931936
