18
Properties=species:S:1:pos:R:3 atomization_energy=-1705.89 smiles=C.O.C.C.C.C.N.H.H.H.H.H.H.H.H.H.H.H pbc="F F F"
C        2.31957905      -0.81581969      -0.91145961
O        1.95796918       0.43608982      -0.34466986
C        3.09708886       1.28679945      -0.10105996
C        3.38921857       2.36129900      -1.11706959
C        2.60011892       2.48702910      -2.37582899
C        2.76188900       2.73049899       0.19839993
N        3.54413860       3.49112860       1.17664954
H        1.40698950      -1.38706946      -1.10078956
H        2.94920887      -1.37792952      -0.21518991
H        2.84632888      -0.66885976      -1.85913923
H        3.93974834       0.85753964       0.43268982
H        4.42872847       2.61961908      -1.28123946
H        1.53339938       2.29242922      -2.22433914
H        2.97288890       1.78180929      -3.12529875
H        2.70246902       3.49850853      -2.78175882
H        1.70538938       2.99234893       0.18390993
H        4.51483802       3.18391882       1.20205956
H        3.17548869       3.33647881       2.11516916
