16
Properties=species:S:1:pos:R:3 atomization_energy=-1594.37 smiles=C.O.C.C.C.C.N.H.H.H.H.H.H.H.H.H pbc="F F F"
C        1.90817930      -0.80764971       1.53302934
O        3.14609866      -0.15026993       1.29070945
C        3.01647887       1.09556958       0.58722978
C        2.43043902       2.16985906       1.50557936
C        4.42335835       1.47229939       0.10539996
C        4.39565843       2.59346899      -0.84003965
N        4.36400853       3.48197856      -1.58379940
H        2.12515908      -1.80787927       1.91845928
H        1.33098947      -0.90974963       0.60908974
H        1.32662944      -0.27303990       2.28866898
H        2.36134896       0.95011960      -0.28175990
H        3.01208881       2.25135902       2.43016903
H        1.40571939       1.92026925       1.79774930
H        2.40175905       3.14940874       1.01933962
H        4.88575790       0.60258975      -0.37812984
H        5.06517804       1.70898939       0.96266961
