16
Properties=species:S:1:pos:R:3 atomization_energy=-1586.38 smiles=C.N.C.C.O.C.C.H.H.H.H.H.H.H.H.H pbc="F F F"
C        0.89580965       0.20648992      -0.07496998
N        2.30086919      -0.03107999      -0.38312985
C        3.12922881       1.08525958       0.10163996
C        4.59414826       0.85164966      -0.26056990
O        5.22401805       1.65268936      -0.94970962
C        5.24234790      -0.37859984       0.28663989
C        6.54022734      -0.62998977       0.07395997
H        0.29800987      -0.63941977      -0.42759982
H        0.52474978       1.11037953      -0.56893980
H        0.73651974       0.29649989       1.00424957
H        2.40665907      -0.09494996      -1.39816939
H        3.06060883       1.19004959       1.19037952
H        2.81210897       2.02847924      -0.35839987
H        4.61623835      -1.05528956       0.85666966
H        7.16348706       0.04909998      -0.50135981
H        7.00478735      -1.52607938       0.47003982
