18
Properties=species:S:1:pos:R:3 atomization_energy=-1702.87 smiles=C.N.C.C.C.C.O.H.H.H.H.H.H.H.H.H.H.H pbc="F F F"
C        1.18354954       0.12946995       0.16845993
N        2.60502904      -0.03145999      -0.14055994
C        2.77121894      -0.76508969      -1.39714946
C        3.30477869       1.26916945      -0.17960992
C        3.82204843       1.85620929       1.10578963
C        4.78993814       1.32960947       0.08868996
O        5.53082763       2.30279902      -0.66437974
H        1.05605962       0.63489976       1.13177949
H        0.69393972      -0.84628964       0.25609990
H        0.66084976       0.71460969      -0.59631976
H        2.29955909      -1.75153925      -1.33392951
H        3.83306849      -0.93551965      -1.60460941
H        2.33891898      -0.22550991      -2.24711910
H        2.92086879       1.97144922      -0.91731962
H        3.69875862       1.28311945       2.01781925
H        3.73494847       2.92531890       1.24535947
H        5.29453807       0.39580984       0.31780986
H        5.16267783       3.19765877      -0.57689978
