18
Properties=species:S:1:pos:R:3 atomization_energy=-1706.56 smiles=C.N.C.C.C.C.O.H.H.H.H.H.H.H.H.H.H.H pbc="F F F"
C        1.56457933      -0.19290992       0.33361987
N        2.95857894       0.15385995       0.58142976
C        3.22600869       1.59498941       0.45514982
C        2.43646898       2.44543911       1.45521947
C        4.70356818       1.77417930       0.69478970
C        5.68090769       1.87765921      -0.44975984
O        5.23105809       3.03883870       0.26119989
H        1.46014939      -1.28239955       0.32741987
H        1.21940947       0.18148994      -0.63572974
H        0.90686964       0.18213992       1.12401955
H        3.53648867      -0.34328986      -0.09586997
H        2.97716894       1.92285918      -0.56362980
H        2.61117885       2.11588918       2.48378891
H        1.36197941       2.40899894       1.25641953
H        2.74244889       3.49426861       1.39088950
H        5.04465796       1.39072940       1.64745930
H        5.32522812       1.74956930      -1.46330946
H        6.70092753       1.55694934      -0.28317989
