15
Properties=species:S:1:pos:R:3 atomization_energy=-1442.65 smiles=C.N.O.C.C.C.N.H.H.H.H.H.H.H.H pbc="F F F"
C        1.19241949       0.00881000       0.12536995
N        2.62549891      -0.09545996       0.30797989
O        3.28861864       1.11713961       0.01425999
C        4.36144837       0.75671968      -0.87351965
C        4.72353818      -0.67469972      -0.57055977
C        3.37388868      -1.14655955      -0.15995994
N        3.05937872      -2.39102917      -0.25216991
H        0.68487971      -0.90409961       0.44873982
H        0.94970962       0.19135992      -0.92582962
H        0.79675966       0.83639964       0.72170972
H        4.00309837       0.87521967      -1.90269930
H        5.20477779       1.43532946      -0.71818970
H        5.12813823      -1.21028946      -1.43067949
H        5.39984802      -0.75639972       0.28496990
H        2.11650916      -2.53255899       0.11695995
