18
Properties=species:S:1:pos:R:3 atomization_energy=-1623.94 smiles=C.N.C.C.N.C.H.H.H.H.H.H.H.H.H.H.H.H pbc="F F F"
C        1.02645958      -0.09543996       0.03043999
N        2.48184899      -0.03411999       0.03454999
C        2.94440877       1.35826950      -0.00269000
C        4.48547827       1.42671941      -0.00022000
N        4.94651826       2.81993881      -0.03217999
C        6.40201744       2.88299892      -0.03874998
H        0.70541972      -1.14145955       0.06455998
H        0.60739975       0.35560987      -0.87537965
H        0.60561975       0.40635984       0.90825967
H        2.83751898      -0.52483980      -0.78574969
H        2.56050897       1.89742924       0.87265964
H        2.56124906       1.85741921      -0.90191966
H        4.86870788       0.89110966      -0.87758963
H        4.86923828       0.92501964       0.89685966
H        4.59658830       3.30466867       0.79427969
H        6.81574733       2.39396908      -0.92692966
H        6.82905731       2.42013911       0.85719969
H        6.72126745       3.92974846      -0.06115998
