13
Properties=species:S:1:pos:R:3 atomization_energy=-1324.94 smiles=N.C.C.C.O.N.C.H.H.H.H.H.H pbc="F F F"
N        2.02143920      -0.40191985      -1.29189945
C        2.54706905      -0.06307998       0.02231999
C        2.99574885       1.34476953       0.00578000
C        2.24892908       2.48363903      -0.19254993
O        3.04203877       3.57971857      -0.11394996
N        4.34454823       3.18471872       0.14533995
C        4.29748845       1.85210928       0.21281992
H        1.75816926      -1.38602948      -1.30413953
H        2.75699882      -0.29551990      -1.98898927
H        3.37507868      -0.73432969       0.27404988
H        1.76596932      -0.19968993       0.77793973
H        1.20461958       2.67210903      -0.39542986
H        5.21338784       1.31150950       0.41171983
