15
Properties=species:S:1:pos:R:3 atomization_energy=-1474.54 smiles=C.O.C.N.C.C.N.H.H.H.H.H.H.H.H pbc="F F F"
C        0.99785960       0.20691993      -0.10193996
O        2.35909917       0.25129990       0.33745988
C        3.10638879       1.33625954       0.05998998
N        4.39991829       1.30929945       0.18491992
C        4.80651832       2.68896905      -0.20044991
C        3.52399853       3.53018872      -0.21030992
N        2.50568899       2.50575889      -0.30279987
H        0.67015971      -0.83609968      -0.07834997
H        0.89942965       0.57458975      -1.12807956
H        0.36946986       0.78460966       0.58175974
H        5.53696785       3.08785884       0.51009981
H        5.26671805       2.65947884      -1.19455951
H        3.48868855       4.22761844      -1.05137956
H        3.41674866       4.08582846       0.72751972
H        1.63246930       2.70571905       0.16515994
