17
Properties=species:S:1:pos:R:3 atomization_energy=-1570.14 smiles=C.O.N.C.C.C.N.H.H.H.H.H.H.H.H.H.H pbc="F F F"
C        5.89024776      -0.77783967       0.09530996
O        6.28418732       0.41885983      -0.56423975
N        5.43458798       1.45494947      -0.15198993
C        5.79373762       2.59398904      -0.67032972
C        7.00635736       2.77505892      -1.55346943
C        4.98861822       3.83257846      -0.30761987
N        5.63408763       4.50340842       0.82184965
H        6.14501755      -0.71729973       1.15689957
H        6.43350737      -1.61385937      -0.35220987
H        4.81673824      -0.95185961      -0.02578999
H        7.00091710       2.03709925      -2.35952914
H        7.91130708       2.65434895      -0.95133962
H        7.01017715       3.77277848      -2.00021928
H        3.96985853       3.53779853      -0.03651999
H        4.93735813       4.50356840      -1.16952951
H        5.67650754       3.84246858       1.60054940
H        5.03515820       5.26418817       1.13907957
