18
Properties=species:S:1:pos:R:3 atomization_energy=-1776.84 smiles=C.C.C.C.C.N.C.H.H.H.H.H.H.H.H.H.H.H pbc="F F F"
C        1.01706958       0.00185000       0.07771997
C        2.53073893       0.01038000      -0.07314997
C        3.22211875       1.04474956      -1.02134962
C        2.86828876       0.06682998      -2.17725917
C        3.23436868      -0.97797962      -1.07532959
N        4.68057828      -0.72489970      -0.85452964
C        4.69564800       0.74552973      -0.80383970
H        0.69494974       0.84794966       0.69430970
H        0.69240971      -0.91712962       0.57726976
H        0.48412981       0.06745997      -0.87424964
H        2.94883895      -0.01553999       0.94454964
H        2.86397895       2.07153919      -1.05556959
H        3.50914859       0.09594996      -3.06568877
H        1.83025929       0.06926998      -2.52317909
H        2.90155889      -2.01046922      -1.16400951
H        5.03293818      -1.09949951       0.02613999
H        5.32536791       1.15903960      -1.59763939
H        5.05018805       1.11243957       0.16518993
