14
Properties=species:S:1:pos:R:3 atomization_energy=-1411.07 smiles=N.C.C.O.C.C.C.H.H.H.H.H.H.H pbc="F F F"
N        1.01492962      -0.28074988      -0.18533993
C        2.39636900       0.06050998       0.19601992
C        3.49301856      -0.74424971      -0.63554976
O        4.36100831       0.47536982      -0.27053989
C        3.06328884       1.14212949      -0.76702968
C        2.90677887       0.69980971      -2.18067902
C        3.20364886      -0.60369976      -2.09017916
H        0.32739987       0.40329985       0.12771995
H        0.70438971      -1.18113953       0.17752992
H        2.57358907       0.17331994       1.27032954
H        3.88949859      -1.68294931      -0.24921990
H        3.00537882       2.20191926      -0.52017978
H        2.62253906       1.28260949      -3.03893887
H        3.22428880      -1.35963941      -2.85475876
