16
Properties=species:S:1:pos:R:3 atomization_energy=-1657.07 smiles=C.C.C.C.C.C.N.H.H.H.H.H.H.H.H.H pbc="F F F"
C        0.97075960      -0.01319000       0.01192999
C        2.48672908       0.00370000       0.02313999
C        3.15192877       1.04649960       0.95758961
C        4.24383829      -0.00720000       1.23539945
C        3.19276884      -1.09147954       0.88170963
C        3.69149855      -2.23583914       0.15340995
N        4.09105827      -3.15610864      -0.43052983
H        0.59979979      -0.86440967      -0.56807979
H        0.57922974       0.90139967      -0.44512981
H        0.55930977      -0.08839997       1.02393961
H        2.87817889       0.07020997      -1.00309958
H        2.56101893       1.30813949       1.84311922
H        3.49430873       1.96556928       0.47511982
H        5.09523776       0.05567998       0.54641980
H        4.62209798      -0.02958999       2.26121912
H        2.60306893      -1.38664946       1.76120934
