12
Properties=species:S:1:pos:R:3 atomization_energy=-1244.44 smiles=O.N.C.C.C.C.O.H.H.H.H.H pbc="F F F"
O        0.91879961      -0.09256996      -0.05278998
N        2.30764908      -0.04444998      -0.02033999
C        3.07325870       1.08293952      -0.01251999
C        4.39279851       0.67665976       0.01192999
C        4.40195814      -0.74374972       0.01868999
C        3.09001880      -1.16682956      -0.00015000
O        2.57072889      -2.39083916      -0.00369000
H        0.70896971       0.84510968       0.08008997
H        2.63825905       2.07163924      -0.02793999
H        5.25701793       1.32839942       0.02118999
H        5.26741802      -1.39287952       0.03359999
H        1.59927942      -2.28098902      -0.02863999
