12
Properties=species:S:1:pos:R:3 atomization_energy=-1177.65 smiles=C.N.N.C.C.C.H.H.H.H.H.H pbc="F F F"
C        0.99312959      -0.06801997      -0.01162999
N        2.43066915      -0.03103999      -0.26479989
N        2.99102874       1.20511957      -0.20871991
C        4.20163841       1.23597956      -0.64691975
C        4.78054788       2.54782907      -0.56808976
C        5.26899811       3.64251852      -0.50449979
H        0.62655977      -1.09412952      -0.10959995
H        0.45620984       0.55240977      -0.73606971
H        0.76371972       0.28641988       0.99819961
H        2.88449877      -0.66651977       0.39719984
H        4.78363793       0.39166984      -1.04910959
H        5.69079757       4.61930821      -0.44478983
