12
Properties=species:S:1:pos:R:3 atomization_energy=-1246.41 smiles=N.C.N.C.C.C.H.H.H.H.H.H pbc="F F F"
N        1.12562955      -0.03053998      -0.34275987
C        2.34737914       0.00024000       0.04289998
N        3.08552881      -1.08475958       0.41242983
C        4.47094803      -0.69068976       0.57677979
C        4.36990803       0.79836966       0.40789985
C        3.13974874       1.23315950       0.09923996
H        0.78736966      -0.99295958      -0.27791989
H        2.89992883      -1.95888918      -0.05930998
H        5.10656794      -1.13358959      -0.19533993
H        4.83775794      -0.95932963       1.57091940
H        5.22396809       1.45037937       0.52032980
H        2.77296886       2.22325916      -0.09510996
