15
Properties=species:S:1:pos:R:3 atomization_energy=-1463.2 smiles=N.C.N.C.C.C.O.H.H.H.H.H.H.H.H pbc="F F F"
N        2.02733921      -1.44903937      -0.96810962
C        2.38981899      -0.15732994      -0.72620974
N        2.24153905       0.76772971      -1.61301936
C        3.02701875       0.18823992       0.60619979
C        4.48052804      -0.15747994       0.60983973
C        5.18455798      -0.56187976       1.87687925
O        4.76828811      -1.53143940       0.90173962
H        2.50542909      -2.14140921      -0.39506984
H        1.97646923      -1.72613934      -1.93951923
H        1.78788933       0.37782985      -2.44075912
H        2.48832911      -0.34820985       1.39784943
H        2.90554875       1.26114948       0.79494969
H        5.04560824       0.33673988      -0.16911993
H        4.64355825      -0.52789979       2.81341882
H        6.24551756      -0.35950987       1.95859925
