15
Properties=species:S:1:pos:R:3 atomization_energy=-1443.59 smiles=N.C.C.C.O.N.C.H.H.H.H.H.H.H.H pbc="F F F"
N        2.41683912      -0.41488983      -1.57645934
C        2.42910899       0.05972998      -0.19444992
C        3.33751867       1.26639948      -0.03612998
C        3.42919869       1.75077936       1.39257949
O        3.54963867       3.17387882       1.29493953
N        2.89985893       3.57164851       0.10105996
C        2.77691886       2.50977904      -0.62277979
H        1.78245929      -1.21110954      -1.65635940
H        3.33854868      -0.77019971      -1.83381930
H        2.76528891      -0.75416968       0.45744982
H        1.40091942       0.31033988       0.09122996
H        4.32981815       1.09747960      -0.46954983
H        4.30397842       1.34503953       1.90895926
H        2.53469902       1.52303942       1.98324924
H        2.34507914       2.51799898      -1.63337933
