17
Properties=species:S:1:pos:R:3 atomization_energy=-1574.21 smiles=C.N.C.C.N.O.C.H.H.H.H.H.H.H.H.H.H pbc="F F F"
C        2.56329900      -1.21507947      -0.38396986
N        1.95451918       0.02644999       0.03428999
C        2.62944890       1.22758955      -0.02125999
C        1.79171934       2.48213892       0.14271995
N        3.92019847       1.27816947      -0.20055992
O        4.38882834       2.59939902      -0.22375992
C        5.80209785       2.56961889      -0.37575985
H        1.88942920      -2.04808916      -0.16322994
H        3.50357862      -1.39448952       0.14654994
H        2.75445885      -1.20525949      -1.46108945
H        0.94581962       0.06129997      -0.05117998
H        0.73047968       2.23683913       0.24471990
H        1.91526931       3.12626871      -0.73292970
H        2.11173922       3.02117879       1.03927959
H        6.16556740       3.59889852      -0.42913983
H        6.07480738       2.05120924      -1.29971945
H        6.26358750       2.07642924       0.48477982
