18
Properties=species:S:1:pos:R:3 atomization_energy=-1717.26 smiles=N.C.C.C.C.C.O.H.H.H.H.H.H.H.H.H.H.H pbc="F F F"
N        1.82743923      -0.05747998       1.32254950
C        2.27073907       0.19545992      -0.04061998
C        3.28757878       1.28774948       0.00686000
C        3.35511877       2.32409906      -1.09049961
C        2.87133894       2.71564904       0.28307990
C        3.70538862       3.56327868       1.18222959
O        3.27653878       4.91290825       1.06769959
H        1.11055957      -0.78271970       1.30971946
H        1.36815951       0.77987971       1.68275930
H        1.41405945       0.46382983      -0.66653977
H        2.72103884      -0.71102974      -0.45449982
H        4.22652836       0.93928960       0.42644982
H        2.62330892       2.28318910      -1.89037922
H        4.33782815       2.64986906      -1.41307939
H        1.81294924       2.91370889       0.41710984
H        4.77026791       3.51404861       0.93455966
H        3.57965852       3.25251861       2.22288924
H        3.35521870       5.14997800       0.12733995
