18
Properties=species:S:1:pos:R:3 atomization_energy=-1721.82 smiles=N.C.C.O.C.C.C.H.H.H.H.H.H.H.H.H.H.H pbc="F F F"
N        1.38562941       0.46110983      -1.42188941
C        2.77516894       0.20662992      -1.00977960
C        3.13493881       1.04845959       0.23235992
O        2.17903912       0.78086967       1.25879952
C        4.49690837       0.71161969       0.75821972
C        5.70823769       1.49842943       0.32300987
C        5.18630815       1.64023934       1.72535938
H        1.16806952      -0.13345994      -2.22137904
H        1.30918944       1.42069942      -1.76231935
H        3.46159852       0.42121985      -1.83665929
H        2.85974886      -0.86036966      -0.77160968
H        3.06194871       2.11533923      -0.01103000
H        1.33880947       0.64435972       0.77579970
H        4.61089801      -0.35096985       0.94421965
H        5.57627803       2.33969919      -0.34761986
H        6.63948739       0.96176961       0.18282992
H        5.75403783       1.19250957       2.53349893
H        4.68006806       2.55978907       2.00051917
