16
Properties=species:S:1:pos:R:3 atomization_energy=-1657.51 smiles=C.C.C.C.C.C.N.H.H.H.H.H.H.H.H.H pbc="F F F"
C        1.02899961       0.00124000      -0.04987998
C        2.51957908      -0.02165999      -0.00966000
C        3.34497859      -0.75671968      -1.04025958
C        2.72786894      -1.51174936      -2.16803924
C        3.32258873       0.75812970      -1.03179961
C        4.49438809       1.47015937      -0.60161979
N        5.44032801       2.04522924      -0.25519990
H        0.64812974       0.74237969       0.66060973
H        0.62808978      -0.97702959       0.23388991
H        0.63895977       0.25965990      -1.03942960
H        2.87803884      -0.05943998       1.01519962
H        4.23764810      -1.26159951      -0.68159971
H        1.87955926      -0.98486959      -2.61571905
H        2.37971918      -2.48952894      -1.82000934
H        3.47005869      -1.67718934      -2.95584872
H        2.77111902       1.24932952      -1.82729932
