16
Properties=species:S:1:pos:R:3 atomization_energy=-1499.73 smiles=C.O.N.C.C.O.C.H.H.H.H.H.H.H.H.H pbc="F F F"
C        4.02495834      -1.83227933      -0.48001981
O        5.06666781      -1.01332959       0.03695999
N        5.21294777       0.10031996      -0.80361966
C        6.14121744       0.89093965      -0.36775984
C        6.99278749       0.68260973       0.84974967
O        6.48709748       2.03589917      -1.01694959
C        5.74674799       2.33711910      -2.20422910
H        3.85610860      -2.65764894       0.21649992
H        4.31701839      -2.24272904      -1.45125938
H        3.09812872      -1.25782956      -0.57582977
H        6.38198738       0.34186987       1.68969929
H        7.47808711       1.61777933       1.14407951
H        7.76203699      -0.06162998       0.62695978
H        6.08799775       3.30731865      -2.57601901
H        4.67700829       2.40956896      -1.98548919
H        5.94032744       1.58356940      -2.97362873
