15
Properties=species:S:1:pos:R:3 atomization_energy=-1430.45 smiles=N.C.C.C.C.N.O.H.H.H.H.H.H.H.H pbc="F F F"
N        0.96076962       0.03894998      -0.25317989
C        2.40121906      -0.00766000      -0.01096000
C        3.26234868      -0.80239971      -0.94547960
C        3.33287880       0.70423969      -0.96106964
C        4.51270834       1.40360940      -0.41838983
N        5.66709760       1.14765958      -0.93488964
O        6.63598756       1.91561929      -0.27798988
H        0.52700979       0.80860971       0.25618991
H        0.51020979      -0.81160967       0.08507997
H        2.68410889      -0.03868998       1.03976962
H        2.79983886      -1.28783944      -1.79694929
H        4.10057848      -1.34981944      -0.52948976
H        2.88780885       1.19756957      -1.81922925
H        4.36045823       2.12449923       0.40356984
H        7.45434728       1.65748934      -0.74226974
