16
Properties=species:S:1:pos:R:3 atomization_energy=-1494.17 smiles=N.C.C.C.C.N.H.H.H.H.H.H.H.H.H.H pbc="F F F"
N        2.62451885      -0.52470979       1.27457955
C        2.40978899       0.14430995      -0.00100000
C        2.83370878       1.59071933       0.06464997
C        1.92860918       2.57420904      -0.10123996
C        4.31071819       1.81642926       0.30249988
N        4.72329796       3.21744886       0.25321990
H        2.22458920      -1.46022938       1.22990948
H        2.09440923      -0.02806999       1.99109927
H        1.35157945       0.05490998      -0.27259989
H        2.98036875      -0.36970986      -0.78274966
H        0.87858968       2.36258917      -0.27375989
H        2.20967920       3.62159850      -0.04832998
H        4.88619797       1.26265956      -0.44905984
H        4.58418824       1.41874940       1.28566952
H        4.63072822       3.54669850      -0.70610972
H        5.71624770       3.26995874       0.47505980
