14
Properties=species:S:1:pos:R:3 atomization_energy=-1466.89 smiles=N.C.C.C.C.C.O.H.H.H.H.H.H.H pbc="F F F"
N        0.99999962       0.00000000       0.00000000
C        2.15100915       0.00000000       0.00000000
C        3.59500859       0.00000000       0.00000000
C        4.16866830       1.13896955       0.82859970
C        5.54491780       0.62031974       1.15839956
C        5.28518769      -0.85657965       1.36949951
O        4.15840826      -1.20873952       0.55478976
H        3.96798850       0.07013998      -1.02911960
H        3.60005849       1.28235943       1.75708928
H        4.18088846       2.09284920       0.29248987
H        6.21125753       0.76586971       0.29868987
H        6.00071788       1.10307959       2.02697926
H        6.14518762      -1.47112945       1.09150957
H        5.02570788      -1.06854957       2.41087906
