20
Properties=species:S:1:pos:R:3 atomization_energy=-1917.04 smiles=C.C.C.C.C.C.N.H.H.H.H.H.H.H.H.H.H.H.H.H pbc="F F F"
C        0.97932959       0.01130999      -0.01266999
C        2.49386904       0.02369999       0.03670999
C        3.14414864       1.05989953       0.98800960
C        4.22390841       0.00072000       1.29058947
C        3.17484878      -1.07901955       0.90830963
C        3.67352852      -2.30115912       0.15250994
N        4.43698828      -3.17102873       1.04190957
H        0.62039973      -0.85252966      -0.58104974
H        0.60330978       0.91555961      -0.50139981
H        0.54234977      -0.03818998       0.98981963
H        2.91314897       0.08342997      -0.97865959
H        2.53453904       1.32326952       1.86024924
H        3.50268865       1.97818924       0.51587980
H        5.08844804       0.05399998       0.61817979
H        4.57971845      -0.02813999       2.32372914
H        2.55266904      -1.36844943       1.76898934
H        4.29993809      -2.01161922      -0.69883975
H        2.82105891      -2.86337890      -0.24260991
H        5.27981808      -2.68795896       1.35049947
H        4.75542831      -3.98732843       0.52120980
