15
Properties=species:S:1:pos:R:3 atomization_energy=-1479.07 smiles=C.N.C.N.C.C.O.H.H.H.H.H.H.H.H pbc="F F F"
C        2.63725906      -0.51757979      -1.64753941
N        2.19347903       0.73963969      -1.07585961
C        2.97562871       1.64905933      -0.40127984
N        2.25892921       2.65308906       0.19784992
C        4.31689828       1.55841942      -0.35416985
C        5.19334820       2.46191911       0.41412985
O        6.41354746       2.37107910       0.35310987
H        1.78701930      -1.02801962      -2.11029916
H        3.05086885      -1.17464957      -0.87608965
H        3.38897860      -0.35133986      -2.42555893
H        1.27924945       0.66501972      -0.63587975
H        1.38200946       2.79530901      -0.29770988
H        2.75764882       3.53526866       0.25740990
H        4.85462831       0.76883971      -0.86413968
H        4.70189825       3.21359879       1.05052958
