16
Properties=species:S:1:pos:R:3 atomization_energy=-1567.66 smiles=N.C.C.O.C.C.C.H.H.H.H.H.H.H.H.H pbc="F F F"
N        0.92929962       0.08907997       0.14916994
C        2.38368911       0.08703996      -0.06293997
C        3.07367884       1.04789960       0.91460965
O        3.98271834      -0.00626000       1.34246953
C        3.06979874      -1.00918959       0.79047971
C        3.67307861      -2.12031911       0.00510000
C        4.98232810      -2.17682920      -0.26371990
H        0.45281983      -0.68640972      -0.31082988
H        0.47047983       0.93486964      -0.18843992
H        2.70755905       0.17598993      -1.10413951
H        2.48698898       1.42103943       1.76048932
H        3.61152846       1.87631920       0.44555982
H        2.45598908      -1.41768948       1.60566933
H        3.00653878      -2.90369891      -0.34154988
H        5.67220782      -1.41105948       0.08090997
H        5.39904762      -3.00247877      -0.83208970
