14
Properties=species:S:1:pos:R:3 atomization_energy=-1325.03 smiles=C.N.N.C.C.C.H.H.H.H.H.H.H.H pbc="F F F"
C        1.58356940      -0.38100985       0.13145995
N        2.58587886       0.33292987       0.51890980
N        2.76209894       1.41819944      -0.27002989
C        2.81933877       2.72775892       0.44917982
C        3.87156843       3.17497873      -0.57700980
C        4.17213836       1.67322938      -0.69660970
H        1.32387953      -1.29768944       0.68404972
H        0.95137962      -0.13008995      -0.73863970
H        3.19413875       2.66997885       1.47924947
H        1.88421932       3.29494862       0.44095982
H        3.45239853       3.62431863      -1.48479938
H        4.68088814       3.80366862      -0.19936992
H        4.41569808       1.32173951      -1.70309935
H        4.93642804       1.31238950       0.00366000
