18
Properties=species:S:1:pos:R:3 atomization_energy=-1724.69 smiles=C.N.C.C.C.O.C.H.H.H.H.H.H.H.H.H.H.H pbc="F F F"
C        2.10678911      -0.26932990      -1.55829943
N        2.35737903       0.11029996      -0.17408992
C        3.07278886       1.38170944      -0.06835997
C        2.27686921       2.59996904      -0.49529979
C        3.04855875       3.72291858       0.16687994
O        3.60778866       3.19502872       1.37843948
C        3.42252856       1.76961929       1.36928945
H        1.60811934      -1.24433955      -1.58165938
H        3.03810871      -0.35632987      -2.12715906
H        1.44375946       0.44352981      -2.05928914
H        2.90576878      -0.62375977       0.27448988
H        4.00668854       1.33799949      -0.64610977
H        1.25931944       2.56053900      -0.08576997
H        2.20306913       2.72779904      -1.57905936
H        3.87877855       4.05836851      -0.46433982
H        2.41711896       4.58546807       0.39819986
H        4.33262811       1.27826952       1.72677937
H        2.60779888       1.53969934       2.06597920
