14
Properties=species:S:1:pos:R:3 atomization_energy=-1396.67 smiles=C.O.C.O.C.C.N.H.H.H.H.H.H.H pbc="F F F"
C        3.59528867      -1.18911950      -0.61135978
O        4.48682824      -0.07714997      -0.67424975
C        4.28791854       0.83924966       0.31207989
O        3.41611859       0.79745970       1.16920955
C        5.24398805       1.96836927       0.20045992
C        5.68931789       2.71821903       1.42955939
N        6.57243743       1.74419931       0.80477969
H        3.85060854      -1.87492924      -1.42396950
H        2.56091901      -0.85901969      -0.74976971
H        3.70901866      -1.72112930       0.33841987
H        5.23625813       2.49354909      -0.74661968
H        5.26787776       2.43617906       2.38765903
H        5.95893788       3.76182856       1.33014946
H        7.29536698       2.20183902       0.24764990
