14
Properties=species:S:1:pos:R:3 atomization_energy=-1445.46 smiles=O.C.C.C.C.N.C.H.H.H.H.H.H.H pbc="F F F"
O        1.03624959       0.08200997      -0.01386999
C        2.44998914       0.00646000      -0.03287999
C        2.99983889       1.32844950       0.43314982
C        3.73036841       1.14829950       1.54895939
C        3.76291863      -0.24304990       2.01721921
N        4.36846823      -1.27691955       1.19360948
C        2.94529874      -1.00579958       0.98765961
H        0.70804971      -0.77974970      -0.31883988
H        2.79488888      -0.23409991      -1.04374957
H        2.82089893       2.26865911      -0.06377997
H        4.22800829       1.94658929       2.08418919
H        3.58955848      -0.44701984       3.06597869
H        4.94372799      -0.85224964       0.46446980
H        2.23401907      -1.74622932       1.31967948
