13
Properties=species:S:1:pos:R:3 atomization_energy=-1310.11 smiles=C.N.N.C.C.C.O.H.H.H.H.H.H pbc="F F F"
C        5.52335761      -0.87835968      -0.25400991
N        5.33059772       0.25566990      -0.83906969
N        4.67388796       1.14080955       0.00631000
C        4.50037843       2.28077908      -0.57917978
C        3.84888840       3.41260867       0.14540994
C        4.87420820       4.36092807       0.68555974
O        4.89792784       5.55630803       0.40752983
H        6.03266756      -1.69249929      -0.79173966
H        5.20100796      -1.08524961       0.78053968
H        4.86382830       2.47809910      -1.60399940
H        3.25647870       3.03525888       0.98399961
H        3.18998865       3.94133853      -0.54921980
H        5.60406778       3.92933842       1.39270944
