14
Properties=species:S:1:pos:R:3 atomization_energy=-1407.81 smiles=N.C.C.C.C.C.O.H.H.H.H.H.H.H pbc="F F F"
N        1.17349957       0.24360990       0.00272000
C        2.58405905      -0.11786995      -0.02987999
C        2.89619887      -0.82492967      -1.27646951
C        3.14657885      -1.41269950      -2.29439916
C        3.40645859       1.13155959      -0.07630997
C        3.72449843       1.89741927       1.18513948
O        4.69264829       1.04608957       0.55808981
H        0.95594965       0.63833973       0.91436962
H        0.62349975      -0.60993978      -0.07673997
H        2.83226898      -0.73785968       0.83922966
H        3.36949863      -1.92815927      -3.19827875
H        3.31772858       1.69607936      -0.99715963
H        3.30107876       1.56654940       2.12418912
H        3.87520856       2.96675876       1.10720962
