18
Properties=species:S:1:pos:R:3 atomization_energy=-1698.26 smiles=C.O.C.C.C.N.C.H.H.H.H.H.H.H.H.H.H.H pbc="F F F"
C        1.17941951       0.34180988      -0.10557996
O        2.58353899       0.34376986       0.11127995
C        3.15928877       1.61067937      -0.21079991
C        4.62564828       1.54716935       0.07353997
C        5.61785768       1.31335946      -1.04337959
N        5.49455803       2.62305886      -0.40888984
C        6.58746728       2.92611879       0.51264981
H        0.78365970      -0.62826975       0.20903992
H        0.95807964       0.48215980      -1.16743958
H        0.69485972       1.12411960       0.48754982
H        2.70278898       2.38588918       0.41470983
H        2.96284889       1.84441923      -1.26475945
H        4.83082791       1.12460950       1.04995957
H        5.25065818       1.24767953      -2.06027916
H        6.49478753       0.71223973      -0.83668970
H        6.23637761       3.62336860       1.28098953
H        7.40093733       3.41454859      -0.03248999
H        7.00528747       2.04914921       1.02265960
