16
Properties=species:S:1:pos:R:3 atomization_energy=-1588.07 smiles=O.C.C.C.C.N.C.H.H.H.H.H.H.H.H.H pbc="F F F"
O        1.20011950       0.22906991       0.33355987
C        2.57775909       0.00351000       0.05589998
C        2.79213897      -1.45015947      -0.38957984
C        2.52410893      -1.44232938      -1.90334931
C        2.94937894      -0.07205997      -2.34674907
N        2.03526922       1.05685957      -2.22654906
C        2.98965883       0.81574967      -1.14319950
H        0.80701971       0.49195981      -0.52408978
H        3.16158877       0.24202991       0.94947962
H        2.14629914      -2.16326917       0.13108995
H        3.83886858      -1.73069934      -0.21913992
H        3.09595867      -2.22843902      -2.40600907
H        1.46017942      -1.60429942      -2.11138911
H        3.74344850      -0.03440999      -3.07752891
H        2.34318918       1.83763922      -2.81042895
H        3.81086839       1.49928937      -0.99553961
