17
Properties=species:S:1:pos:R:3 atomization_energy=-1573.23 smiles=C.N.C.C.C.N.O.H.H.H.H.H.H.H.H.H.H pbc="F F F"
C        1.03187959      -0.01097999      -0.14849994
N        2.47428915      -0.08975997       0.03669999
C        3.08293889       1.24416948      -0.05186998
C        4.59014831       1.08839959       0.09025996
C        5.15940813       0.98315960       1.48458944
N        5.30539791       0.99319961      -0.99551961
O        6.66113742       0.81456971      -0.69814974
H        0.60263977      -1.01557962      -0.09046997
H        0.77370971       0.40932984      -1.12547954
H        0.56619980       0.59289979       0.63641974
H        2.87493895      -0.66898971      -0.70475975
H        2.71587891       1.89916931       0.74552973
H        2.86488885       1.71182937      -1.01929962
H        4.39691808       1.22111952       2.23154900
H        5.98996756       1.68454934       1.60482931
H        5.51376801      -0.03748998       1.65593939
H        7.06220735       0.73975973      -1.58410939
