18
Properties=species:S:1:pos:R:3 atomization_energy=-1715.62 smiles=C.O.C.C.N.C.C.H.H.H.H.H.H.H.H.H.H.H pbc="F F F"
C        2.62033899      -0.66992971       0.05980998
O        2.22179918       0.69483972       0.05942997
C        3.20373869       1.67319935       0.05154998
C        2.59846893       3.06146878       0.04373998
N        2.25397923       3.48852858       1.39683948
C        4.53135815       1.43268944       0.03239999
C        5.63359760       2.44540908       0.06291998
H        1.71475932      -1.28459950       0.06663997
H        3.19598884      -0.91068962       0.95967961
H        3.18356884      -0.91462965      -0.84647965
H        1.69080930       3.05073890      -0.57196979
H        3.26079861       3.79954855      -0.41832983
H        1.66104935       2.76567901       1.80600924
H        1.67751939       4.32508845       1.33908943
H        4.89958818       0.41161984       0.02612999
H        5.28665777       3.47641870       0.14805994
H        6.23590777       2.36205902      -0.84717967
H        6.28528748       2.24780923       0.92014965
