17
Properties=species:S:1:pos:R:3 atomization_energy=-1598.2 smiles=C.N.C.C.O.C.N.H.H.H.H.H.H.H.H.H.H pbc="F F F"
C        1.03341957      -0.03328999      -0.06320998
N        2.47674912       0.16937993      -0.05765998
C        3.29033878      -1.05149961       0.00358000
C        3.93011837      -1.36736945      -1.35361942
O        4.95231785      -0.43189983      -1.68461936
C        3.00571871       1.42976946       0.00962000
N        4.24007856       1.77933934       0.06274997
H        0.48360982       0.91012964      -0.14624993
H        0.71684970      -0.52368980       0.86331966
H        0.74141970      -0.66247976      -0.91027965
H        2.66527893      -1.90181930       0.30179988
H        4.06184841      -0.94121962       0.77413968
H        3.18797883      -1.37101943      -2.15843905
H        4.39715830      -2.35644919      -1.31604944
H        4.51403813       0.43514982      -1.80083935
H        2.24245905       2.22738907      -0.00876000
H        4.85210802       0.95798962       0.09071996
