14
Properties=species:S:1:pos:R:3 atomization_energy=-1394.67 smiles=C.N.C.C.O.C.O.H.H.H.H.H.H.H pbc="F F F"
C        2.33108914      -0.71168971      -1.30819954
N        2.87051886      -0.39475986       0.00928000
C        3.53155863       0.92625966       0.03239999
C        4.92085819       0.87621966      -0.57987975
O        5.51253764      -0.13306995      -0.94589961
C        5.63704798       2.19791905      -0.69967976
O        5.12725809       3.23416883      -0.30916988
H        1.83825932      -1.68829936      -1.27053948
H        3.11198877      -0.76136970      -2.07308914
H        1.57855936       0.02250999      -1.61321933
H        3.56243867      -1.10761953       0.25645990
H        3.64354854       1.22962952       1.07849963
H        2.91949888       1.67486928      -0.48159982
H        6.63584726       2.13236919      -1.15909953
