14
Properties=species:S:1:pos:R:3 atomization_energy=-1471.41 smiles=N.C.C.C.C.C.O.H.H.H.H.H.H.H pbc="F F F"
N        2.21052905      -0.45018981      -1.32385947
C        2.49675899       0.01357999       0.03099999
C        2.87105885       1.44959942       0.02370999
C        2.14285911       2.61899885      -0.05484998
C        3.08150867       3.67783859      -0.01998999
C        4.32019827       3.08841876       0.07430997
O        4.20391822       1.73574937       0.10016996
H        2.09701922      -1.46123946      -1.30699946
H        3.03267879      -0.26664989      -1.89933925
H        3.30735877      -0.58636977       0.45914981
H        1.61168932      -0.13624995       0.65816975
H        1.06719960       2.68906897      -0.13614995
H        2.88052884       4.73865837      -0.06441997
H        5.32972769       3.47101856       0.12713995
