17
Properties=species:S:1:pos:R:3 atomization_energy=-1590.29 smiles=C.N.C.N.C.C.O.H.H.H.H.H.H.H.H.H.H pbc="F F F"
C        1.23913951      -0.13153995       0.49665980
N        2.45123894       0.20397992      -0.24864990
C        2.84931900      -0.86982968      -1.15748953
N        2.37643912       1.46054946      -0.90174965
C        1.27578948       1.79202933      -1.78997927
C        3.29163879       2.43615912      -0.53335977
O        3.30867872       3.59620867      -0.93111962
H        0.98030965       0.67421972       1.19263952
H        1.39964944      -1.03174958       1.10005956
H        0.38054985      -0.30932989      -0.16031994
H        3.03762877      -1.79292927      -0.59833974
H        3.78401857      -0.61344977      -1.66868931
H        2.08848917      -1.07904958      -1.91698920
H        0.95298962       0.91207965      -2.35194911
H        1.58259944       2.56994894      -2.49578903
H        0.44532981       2.17552919      -1.18941952
H        4.04286831       2.05866916       0.18121992
