12
Properties=species:S:1:pos:R:3 atomization_energy=-1271.03 smiles=C.O.C.C.N.C.O.H.H.H.H.H pbc="F F F"
C        3.28548872      -1.03200961       0.52407978
O        2.42093900       0.06587998       0.26008989
C        3.00755871       1.25402945       0.13638995
C        2.53938910       2.52199893      -0.11208995
N        3.58496857       3.41267856      -0.14035994
C        4.63172796       2.65271889       0.09009996
O        4.36641829       1.32907945       0.26922988
H        2.67226901      -1.93463927       0.60021980
H        3.81089841      -0.89761962       1.47586937
H        3.99929852      -1.17497949      -0.29449988
H        1.51664938       2.83185894      -0.26946988
H        5.66963757       2.94966887       0.15402994
