12
Properties=species:S:1:pos:R:3 atomization_energy=-1206.6 smiles=C.C.O.C.O.C.H.H.H.H.H.H pbc="F F F"
C        0.69396975       1.25720945      -0.63941977
C       -0.30258987       1.01162963       0.45650983
O       -1.34448944       0.05057998       0.19556992
C       -0.72511973      -1.24456954       0.12753995
O        0.70511970      -1.11602961       0.18329992
C        1.00112962       0.26968988       0.44864983
H        0.47421982       0.88113968      -1.63065933
H        1.22979946       2.19851909      -0.63152975
H       -0.46254982       1.77596933       1.20378954
H       -1.06284953      -1.84675923       0.97580963
H       -1.00622962      -1.72848930      -0.81165970
H        1.74734929       0.51805979       1.19107948
