20
Properties=species:S:1:pos:R:3 atomization_energy=-1848.92 smiles=C.N.C.C.C.O.C.H.H.H.H.H.H.H.H.H.H.H.H.H pbc="F F F"
C        3.55110850      -2.51070913      -1.15212950
N        4.15844838      -1.27817944      -1.62765937
C        4.14414826      -0.23896991      -0.58796974
C        4.65757828       1.12250960      -1.11578952
C        6.08842772       1.01974959      -1.64360935
O        3.74857865       1.56943935      -2.13649910
C        3.92010839       2.93468872      -2.49116910
H        3.57010854      -3.25930859      -1.95053929
H        2.50757896      -2.36118898      -0.85600969
H        4.10850849      -2.92142897      -0.30363988
H        3.63464856      -0.91567966      -2.42882915
H        4.76269797      -0.55556978       0.25985989
H        3.11561881      -0.10087996      -0.23099992
H        4.62673836       1.83177933      -0.27889988
H        6.12610734       0.47396982      -2.59223887
H        6.74285741       0.52411981      -0.91964965
H        6.50325728       2.01386926      -1.83738929
H        3.11681865       3.21138861      -3.17985881
H        4.87317818       3.08855881      -3.00415879
H        3.85538845       3.57745869      -1.60790940
