18
Properties=species:S:1:pos:R:3 atomization_energy=-1711.82 smiles=C.N.C.C.C.C.O.H.H.H.H.H.H.H.H.H.H.H pbc="F F F"
C        2.63272895      -0.99971960      -0.43034982
N        2.18064925       0.29532989       0.06013998
C        3.26215868       1.28346944       0.11413995
C        3.37971855       2.29188898      -0.99703958
C        2.89931895       2.72484904       0.36317984
C        3.75970848       3.56438869       1.24461951
O        3.39202878       4.92829792       1.09688953
H        1.78031927      -1.68201934      -0.50272981
H        3.36749865      -1.44507941       0.24833990
H        3.07661875      -0.91290963      -1.42718950
H        1.75845931       0.17421992       0.98102961
H        4.18955830       0.93389962       0.56493978
H        2.65322885       2.25368905      -1.80115931
H        4.37643837       2.57013894      -1.31803945
H        1.84799931       2.96259883       0.48320981
H        4.82411792       3.46489851       1.00647961
H        3.61629853       3.28425861       2.29246909
H        3.41468863       5.12443804       0.14505994
