14
Properties=species:S:1:pos:R:3 atomization_energy=-1460.2 smiles=N.C.O.C.C.C.C.H.H.H.H.H.H.H pbc="F F F"
N        1.17213950      -0.50059979      -0.17596994
C        2.53241895      -0.60638973      -0.17270993
O        3.07908881      -1.69510928      -0.29292988
C        3.25533866       0.70894971      -0.00891000
C        4.76692805       0.51936980      -0.03006999
C        5.46125788       1.80742924       0.12976995
C        6.03248739       2.85478879       0.25991990
H        0.68410972       0.37980986      -0.09132997
H        0.63344974      -1.35007946      -0.28598988
H        2.94122890       1.16030958       0.94028966
H        2.94412894       1.37895941      -0.81981965
H        5.07422816       0.05262998      -0.97367964
H        5.07210807      -0.16288994       0.77243973
H        6.54464717       3.78300849       0.37537984
