11
Properties=species:S:1:pos:R:3 atomization_energy=-1220.58 smiles=N.C.O.C.C.C.N.H.H.H.H pbc="F F F"
N        1.19266955      -0.11258995      -0.59190977
C        2.41936900      -0.06494997       0.00356000
O        2.91950873      -1.07660954       0.47564982
C        3.11849867       1.25053945       0.00000000
C        2.43073904       2.40500908       0.06560997
C        4.52449827       1.25053945       0.00000000
N        5.67550781       1.25053945       0.00000000
H        0.79413971       0.64414972      -1.12799957
H        0.74862968      -1.02044962      -0.64683976
H        1.34863941       2.43828905       0.13006995
H        2.94548875       3.36269855       0.09280996
