16
Properties=species:S:1:pos:R:3 atomization_energy=-1643.82 smiles=C.C.C.C.N.C.C.H.H.H.H.H.H.H.H.H pbc="F F F"
C        1.01736960       0.01542000       0.50350980
C        2.29159905       0.00231000       0.09425997
C        3.09402885      -1.24083946      -0.23433991
C        4.22239846      -0.77890969      -1.12213956
N        5.35978791      -0.02693999      -0.59780978
C        4.23236832       0.72025970      -1.14501957
C        3.10902867       1.22285947      -0.27252990
H        0.48421980       0.94869960       0.65711973
H        0.47323983      -0.90587962       0.68605973
H        2.47766913      -1.98018922      -0.75534971
H        3.49452851      -1.69054927       0.67994972
H        4.35152822      -1.32795947      -2.04269924
H        5.35034769      -0.01189999       0.42494984
H        4.36750836       1.24045945      -2.08220915
H        3.51475867       1.69719933       0.62775973
H        2.50069889       1.95447919      -0.81676965
