15
Properties=species:S:1:pos:R:3 atomization_energy=-1486.15 smiles=N.N.C.C.C.C.O.H.H.H.H.H.H.H.H pbc="F F F"
N        1.15503952       0.05683998       0.25556990
N        2.45125912       0.09267996      -0.27586988
C        3.30426872       1.23468952      -0.08740997
C        4.56766811       0.82610970      -0.82071965
C        4.64064837      -0.68427973      -0.60656977
C        3.19329874      -1.08487957      -0.44400984
O        2.76348903      -2.22710923      -0.39686985
H        1.00368959      -0.89626965       0.61116977
H        0.50311979       0.12841995      -0.52972979
H        3.49271854       1.36572943       0.98364963
H        2.84626882       2.13574917      -0.50398980
H        4.46124842       1.03674959      -1.89298922
H        5.45784787       1.35095947      -0.46165981
H        5.09497786      -1.19259953      -1.46007937
H        5.17953810      -0.92876966       0.31367986
