13
Properties=species:S:1:pos:R:3 atomization_energy=-1302.22 smiles=C.N.O.C.C.C.N.H.H.H.H.H.H pbc="F F F"
C        1.02189958       1.08506957       1.06669960
N        2.30002918       1.18104957       1.21553947
O        2.90770896       0.99618961      -0.03504999
C        4.32467816       1.12236956       0.11125996
C        4.73598820       2.58178908       0.24951991
C        4.52352831       3.30627880      -1.00831962
N        4.37842825       3.88453852      -2.00527915
H        0.35711986       1.20072952       1.93638918
H        0.54325980       0.88999966       0.09192996
H        4.78733812       0.66702973      -0.77170967
H        4.65319832       0.54469979       0.98409960
H        5.79731769       2.63277892       0.51775980
H        4.16984846       3.07259885       1.04861957
