15
Properties=species:S:1:pos:R:3 atomization_energy=-1486.63 smiles=C.N.C.N.C.C.O.H.H.H.H.H.H.H.H pbc="F F F"
C        0.94849963      -0.05378998      -0.06391997
N        2.36064899       0.06897997      -0.39346984
C        2.95964882       1.16423951      -0.07959997
N        2.40759900       2.28282902       0.50328980
C        4.45708848       1.24904956      -0.42035984
C        5.19212792      -0.03687999      -0.64943972
O        4.96823793       2.36359900      -0.48698980
H        0.62894972      -1.08491956      -0.24453990
H        0.33751986       0.59708975      -0.69754970
H        0.75308970       0.16638993       0.99087961
H        1.43096942       2.44530915       0.29768988
H        2.98224887       3.11659887       0.37876985
H        4.82511816      -0.51999981      -1.55820935
H        5.06607786      -0.69618970       0.21296991
H        6.25871751       0.17322993      -0.76991969
