15
Properties=species:S:1:pos:R:3 atomization_energy=-1462.51 smiles=C.N.C.C.O.C.N.H.H.H.H.H.H.H.H pbc="F F F"
C        0.92685964       0.41556984       0.08219997
N        2.36572918       0.66136975      -0.00630000
C        3.19973874      -0.54621977      -0.03686998
C        3.54292867      -0.99798962       1.36528949
O        3.20570864      -2.08507916       1.82903927
C        2.86179880       1.86890924       0.40977984
N        4.08503841       2.25399917       0.47018980
H        0.36391986       1.29733946      -0.24198990
H        0.64149973       0.17751993       1.11212958
H        0.62730976      -0.41394984      -0.56661980
H        4.13134826      -0.36509986      -0.58445975
H        2.68450884      -1.36426944      -0.55379980
H        4.14615834      -0.29260989       1.96208925
H        2.07615912       2.57527893       0.73156969
H        4.71636793       1.54806942       0.09485996
