15
Properties=species:S:1:pos:R:3 atomization_energy=-1473.59 smiles=N.C.N.O.C.C.C.H.H.H.H.H.H.H.H pbc="F F F"
N        1.13418951       1.60183932      -0.89443968
C        2.26650899       0.97874961      -0.51920979
N        2.43700897      -0.29072989      -0.48533981
O        3.21802871       1.85821923      -0.15265994
C        4.49286804       1.29319946       0.18576993
C        5.42483790       2.43057907       0.47918980
C        6.21964754       2.50684896       1.55467936
H        1.09781962       2.56650891      -0.58684977
H        0.27462990       1.09467961      -0.73907970
H        1.58878938      -0.74262969      -0.83136967
H        4.88312811       0.72625970      -0.66720977
H        4.38645844       0.63601973       1.05749961
H        5.44365777       3.23542872      -0.25197990
H        6.24050777       1.72337934       2.30472910
H        6.87400709       3.36086864       1.70132937
