20
Properties=species:S:1:pos:R:3 atomization_energy=-1854.28 smiles=C.O.C.C.C.C.N.H.H.H.H.H.H.H.H.H.H.H.H.H pbc="F F F"
C        1.88602929      -0.06320998       1.85954927
O        3.04492871       0.75531968       1.77722935
C        3.00979891       1.70394933       0.70518972
C        1.97693919       2.79988882       0.96154964
C        4.42572825       2.27787904       0.53314976
C        4.97927793       2.94467877       1.79398932
N        6.31838729       3.47527866       1.53811937
H        2.07403916      -0.84417964       2.60123902
H        1.67474930      -0.54073977       0.89837964
H        1.02353960       0.51961979       2.19292920
H        2.75338896       1.18068949      -0.22499992
H        2.06459920       3.20511869       1.97480927
H        0.96092959       2.40118904       0.87263964
H        2.07447923       3.61570858       0.23859991
H        4.42948849       2.99063889      -0.30123987
H        5.09748805       1.45472944       0.25468991
H        5.03148778       2.22742919       2.61996906
H        4.33623846       3.77218853       2.10825919
H        6.94000736       2.70685883       1.28736947
H        6.68999755       3.86445850       2.40395913
