15
Properties=species:S:1:pos:R:3 atomization_energy=-1464.7 smiles=C.N.C.C.O.C.N.H.H.H.H.H.H.H.H pbc="F F F"
C        2.64135893      -0.80474967      -1.03120959
N        2.36560906       0.02615999       0.14164995
C        2.96069877       1.38567949       0.00000000
C        2.43246903       2.28915901       1.13445951
O        2.59414902       1.69306930       2.42416909
C        4.40469846       1.38567949       0.00000000
N        5.55570799       1.38567949       0.00000000
H        2.12746917      -1.76410926      -0.92023967
H        3.71047865      -1.01409958      -1.14132960
H        2.27126922      -0.33576986      -1.94817923
H        2.79578894      -0.41814983       0.95695961
H        2.60620894       1.82648933      -0.94063964
H        1.36109940       2.48696905       0.99871961
H        2.94724876       3.25711861       1.14532956
H        1.95768922       0.95631963       2.46448910
