18
Properties=species:S:1:pos:R:3 atomization_energy=-1721.15 smiles=N.C.C.C.O.C.C.H.H.H.H.H.H.H.H.H.H.H pbc="F F F"
N        0.80568967       0.11095996       0.67661970
C        2.25781921      -0.03165999       0.51191981
C        2.99306884       1.32884945       0.47222981
C        2.79055887       2.13030916       1.77232933
O        1.42817940       2.51062889       1.94615920
C        4.46946836       1.10521961       0.22561991
C        5.13448789       1.57774938      -0.83700965
H        0.38616984      -0.82098965       0.68907976
H        0.42401984       0.56428978      -0.15763993
H        2.44932905      -0.58741979      -0.41404982
H        2.64075889      -0.64105973       1.33920941
H        2.56383898       1.91191923      -0.35482985
H        3.38417875       3.05074873       1.75600930
H        3.09745879       1.55049937       2.64999901
H        0.90223961       1.69990938       1.76531932
H        5.01464821       0.52653979       0.96963963
H        4.64255801       2.16668927      -1.60534937
H        6.19733742       1.38841943      -0.95650964
