13
Properties=species:S:1:pos:R:3 atomization_energy=-1315.23 smiles=N.C.N.O.C.C.C.H.H.H.H.H.H pbc="F F F"
N        1.29568946      -0.24705990      -0.82839967
C        2.52449903      -0.25012990      -0.27913988
N        3.03509890      -1.21497954       0.39032983
O        3.16598867       0.91248962      -0.49477980
C        4.49838804       0.99322964       0.02903999
C        5.05276789       2.31594901      -0.29177987
C        5.50793765       3.39774862      -0.55402980
H        0.97393961       0.68452972      -1.06568952
H        0.59764974      -0.80909967      -0.36263985
H        2.37298900      -1.99363923       0.39541986
H        5.12098817       0.21357991      -0.42477983
H        4.47676830       0.85983964       1.11678950
H        5.90861748       4.35588851      -0.78872966
