14
Properties=species:S:1:pos:R:3 atomization_energy=-1459.71 smiles=O.C.C.C.C.C.N.H.H.H.H.H.H.H pbc="F F F"
O        0.93402963      -0.02902999       0.04625998
C        2.37425898      -0.01959999       0.02443999
C        3.04450884       1.04159958       0.93068965
C        4.13266846      -0.00304000       1.24120950
C        3.09024867      -1.09417961       0.89542964
C        3.59294855      -2.23545913       0.16819993
N        3.99050831      -3.14778878      -0.42790984
H        0.66870975      -0.71141972      -0.59604976
H        2.73920896       0.03627999      -1.01043957
H        2.44334904       1.33175946       1.80011933
H        3.39497879       1.94439918       0.42360983
H        4.99212815       0.04932998       0.56154977
H        4.49847838      -0.00568000       2.27161921
H        2.49107902      -1.38811941       1.76855924
