15
Properties=species:S:1:pos:R:3 atomization_energy=-1439.62 smiles=C.O.C.C.C.N.N.H.H.H.H.H.H.H.H pbc="F F F"
C        3.37040878      -1.20916949       0.57670977
O        2.56235906      -0.08779996       0.23374992
C        3.20693875       1.10090954       0.02004999
C        4.51763840       1.36685949       0.08050997
C        4.98346814       2.74128892      -0.18626992
N        6.24280752       3.04146875      -0.13250995
N        6.48837731       4.34515838      -0.39578984
H        2.71044900      -2.07089915       0.71325972
H        3.89965846      -1.03530960       1.51939941
H        4.07407840      -1.44546939      -0.22817991
H        2.46211896       1.85301931      -0.22213992
H        5.28005779       0.63726978       0.31557988
H        4.20657830       3.48938852      -0.43184984
H        7.49490701       4.47469817      -0.52961978
H        6.26205736       4.92450791       0.41707985
