18
Properties=species:S:1:pos:R:3 atomization_energy=-1696.1 smiles=C.O.C.C.N.C.C.H.H.H.H.H.H.H.H.H.H.H pbc="F F F"
C        1.96547919      -0.57475976      -1.30555953
O        2.22733911       0.01254999      -0.03921999
C        3.09643886       1.16986953      -0.05349998
C        2.50116899       2.50575889      -0.55597975
N        3.08219880       3.20864881       0.60796977
C        4.37371823       3.80260858       0.26242990
C        3.27254867       1.90907924       1.29185945
H        1.31604944      -1.44129949      -1.15932952
H        2.89997879      -0.90528967      -1.76706936
H        1.45890943       0.14201995      -1.95728927
H        4.06102833       0.92459963      -0.51929981
H        1.40481945       2.52611899      -0.56204977
H        2.84683884       2.83031896      -1.54353944
H        4.87014819       4.16587828       1.16921952
H        4.22100837       4.66921832      -0.39009983
H        5.05925785       3.11395873      -0.24534990
H        4.23722822       1.75704929       1.78814923
H        2.48319897       1.69172930       2.02152916
