18
Properties=species:S:1:pos:R:3 atomization_energy=-1784.49 smiles=C.C.C.C.N.C.C.H.H.H.H.H.H.H.H.H.H.H pbc="F F F"
C        1.01255960       0.03121999       0.27542988
C        2.52508898       0.00447000       0.04427999
C        2.95909874      -1.30146949      -0.65103975
C        2.78148883      -1.01371963      -2.11460911
N        3.80843843      -0.35195987      -2.89899874
C        2.78019891       0.47651982      -2.29563912
C        2.95639880       1.10722956      -0.94634965
H        0.70942971       0.97763960       0.73690972
H        0.70982971      -0.78176967       0.94481963
H        0.45148982      -0.07935997      -0.65964973
H        3.02553883       0.12231995       1.01170962
H        2.36463910      -2.16187908      -0.32812986
H        4.01253834      -1.51657936      -0.43250984
H        2.02921920      -1.60090935      -2.62209900
H        4.69120798      -0.28945988      -2.39029918
H        2.02695919       0.92372966      -2.92873875
H        4.00961836       1.36968951      -0.78308968
H        2.36071914       2.01803916      -0.83597970
