19
Properties=species:S:1:pos:R:3 atomization_energy=-1736.93 smiles=N.C.C.C.N.C.O.H.H.H.H.H.H.H.H.H.H.H.H pbc="F F F"
N        1.71363935       2.42860911      -1.80209925
C        2.53578909       2.60216886      -0.60966979
C        3.87105847       1.87631920      -0.78468971
C        4.78081788       1.99854922       0.44550982
N        5.99184743       1.16349955       0.27910988
C        5.23127812       3.44514854       0.72677969
O        6.18916744       3.43877870       1.78722924
H        0.82067965       2.90553891      -1.67197933
H        1.48955935       1.44227941      -1.93130925
H        2.00083925       2.20930903       0.26185990
H        2.69386882       3.67245863      -0.45334981
H        4.38994818       2.26666922      -1.67071932
H        3.67387850       0.81286969      -0.97965964
H        4.25964836       1.61826936       1.33210944
H        6.47778746       1.44514943      -0.57545979
H        5.70834771       0.19529993       0.11943995
H        4.39562816       4.07710840       1.03736957
H        5.70482769       3.89522853      -0.15236994
H        6.67003714       2.59096889       1.67165937
