14
Properties=species:S:1:pos:R:3 atomization_energy=-1458.51 smiles=O.C.C.C.C.C.N.H.H.H.H.H.H.H pbc="F F F"
O        0.92211966      -0.00847000       0.10949995
C        2.35485900       0.00601000       0.01532999
C        3.07126882       1.05458959       0.89506963
C        4.13766840      -0.01312000       1.23482956
C        3.09613884      -1.08174952       0.82388969
C        5.33765795       0.02554999       0.42061984
N        6.28854760       0.05094998      -0.24174990
H        0.63522974      -0.74624970      -0.45676982
H        2.67235884       0.05017998      -1.03425958
H        2.48549897       1.38088949       1.76318926
H        3.42381873       1.94504919       0.36531986
H        4.37989833      -0.04572998       2.30393906
H        3.46879854      -1.92648922       0.23624990
H        2.51854906      -1.47845943       1.66780930
