15
Properties=species:S:1:pos:R:3 atomization_energy=-1525.86 smiles=C.N.C.N.C.C.C.H.H.H.H.H.H.H.H pbc="F F F"
C        1.11307960       1.22506952      -0.12429995
N       -0.21489992       1.35537943       0.44448984
C       -1.24904956       0.72111971      -0.18807993
N       -1.44837939      -0.51632980      -0.42144985
C       -0.56230980      -1.50956935       0.17721994
C        0.91160962      -1.31911943       0.00219000
C        1.61031941      -0.18098992      -0.13091995
H        1.79953935       1.83352925       0.47596980
H        1.13275955       1.62869935      -1.14358961
H       -0.41507984       2.33609918       0.61368974
H       -2.00275924       1.44208941      -0.54881979
H       -0.81399969      -2.46519892      -0.30063988
H       -0.79817966      -1.63737942       1.23864948
H        1.47590937      -2.25068909       0.00078000
H        2.68868896      -0.27258989      -0.25030989
