11
Properties=species:S:1:pos:R:3 atomization_energy=-1227.75 smiles=N.C.C.C.N.C.O.H.H.H.H pbc="F F F"
N        1.03564961      -0.00040000      -0.25897990
C        2.29779908      -0.05446998      -0.01333000
C        3.14597880      -1.24766956       0.13940994
C        4.37157846      -0.76686970       0.38363984
N        4.42665834       0.60042973       0.40896982
C        3.19964865       1.15830960       0.17553993
O        2.84576895       2.31279916       0.11880995
H        0.76074972       0.99349963      -0.30200989
H        2.80353879      -2.26282899       0.06177998
H        5.26796809      -1.34987949       0.55229975
H        5.25478783       1.15537953       0.57644975
