15
Properties=species:S:1:pos:R:3 atomization_energy=-1428.52 smiles=N.N.C.C.C.O.C.H.H.H.H.H.H.H.H pbc="F F F"
N        0.77613972       1.74534931      -0.27811989
N        2.06625916       1.70300939      -0.67795971
C        2.86840887       1.29180949       0.25054991
C        4.37954810       1.18579958      -0.00468000
C        5.06543795       2.28579921      -0.82034967
O        6.09572767       2.44240911       0.18796993
C        5.31963797       1.64526931       1.11308957
H        0.17800993       1.91845928      -1.09124954
H        0.60902975       2.54621895       0.33754986
H        2.51284890       1.00903958       1.25913953
H        4.64013816       0.18315993      -0.36919987
H        4.50505817       3.21623868      -0.95498966
H        5.48124806       1.96326928      -1.77904929
H        5.91921791       0.85499967       1.57323934
H        4.87283804       2.27071914       1.89274925
