15
Properties=species:S:1:pos:R:3 atomization_energy=-1487.22 smiles=N.C.C.C.C.N.O.H.H.H.H.H.H.H.H pbc="F F F"
N        1.78802925      -0.31687986       1.07665962
C        2.83510897       0.05770997       0.12299995
C        2.88555881       1.52651945      -0.21036991
C        1.97612921       2.45553892       0.13795994
C        4.07221847       1.90949925      -1.03125961
N        4.62060822       3.12266869      -0.75422973
O        4.57643814       1.14704957      -1.84518922
H        1.91323930      -1.29868943       1.31940948
H        0.88741963      -0.26635990       0.60273976
H        2.69209896      -0.52269978      -0.79590968
H        3.79847842      -0.24071990       0.55279981
H        1.10759960       2.19355902       0.73393972
H        2.05208924       3.49128858      -0.17382993
H        4.32902835       3.68243859       0.03318999
H        5.48000760       3.36211869      -1.22807957
