17
Properties=species:S:1:pos:R:3 atomization_energy=-1580.27 smiles=N.N.C.C.C.C.O.H.H.H.H.H.H.H.H.H.H pbc="F F F"
N        0.91440962       1.05544961      -1.09524962
N        2.25717905       1.04711958      -1.22821949
C        2.87628893       1.05154957      -0.08952997
C        4.37698845       1.11941955      -0.06447997
C        4.85806808       2.56638905       0.04251998
C        4.60600834       3.38676868      -1.22289947
O        3.24193862       3.76525850      -1.33640942
H        0.48038982       1.27633944      -1.99688926
H        0.56677978       0.11741995      -0.87383967
H        2.35042907       1.08685961       0.88264962
H        4.78287791       0.64419974      -0.96436963
H        4.71857835       0.54842981       0.80540971
H        5.93716775       2.55005892       0.23364991
H        4.37250805       3.05251884       0.89686963
H        4.90703801       2.84829883      -2.12762915
H        5.18950771       4.31185822      -1.17571957
H        2.72239890       2.95960896      -1.54458939
