16
Properties=species:S:1:pos:R:3 atomization_energy=-1612.53 smiles=C.N.C.O.C.C.C.H.H.H.H.H.H.H.H.H pbc="F F F"
C        2.42036899       3.40072866       1.06128962
N        3.76705863       3.03979882       0.70620971
C        4.02969838       1.86606926       0.04445998
O        3.16614865       1.06734961      -0.29933988
C        5.48176787       1.56875932      -0.16024994
C        5.84667772       0.11472995      -0.13888995
C        6.37560744       2.54128890      -0.40563984
H        2.41303901       4.43940814       1.39933944
H        2.07704922       2.74461894       1.86550921
H        1.76379927       3.28590860       0.19404993
H        4.53280805       3.54514868       1.13213957
H        5.32365811      -0.42634984      -0.93406963
H        5.57733783      -0.33213988       0.82355971
H        6.92097704      -0.03828999      -0.28675990
H        6.09680764       3.58692868      -0.47947982
H        7.42298705       2.30611920      -0.57905980
