18
Properties=species:S:1:pos:R:3 atomization_energy=-1726.23 smiles=C.N.C.C.C.C.O.H.H.H.H.H.H.H.H.H.H.H pbc="F F F"
C        0.93794966      -0.02227999       0.14408995
N        2.39388909       0.07074997       0.17427993
C        2.88410892       1.46492943       0.22007991
C        2.45302898       2.16698904       1.51497946
C        4.41714848       1.42322942       0.11789995
C        5.03867821       2.77156893      -0.15659993
O        4.41733823       3.77605853      -0.48662982
H        0.64919975      -1.06465963      -0.02583999
H        0.50959978       0.57826975      -0.66459972
H        0.49263981       0.27694989       1.09709959
H        2.75232892      -0.37702987      -0.67011972
H        2.48113893       2.01651924      -0.63877973
H        2.75472885       1.59337941       2.39857917
H        1.36783942       2.30585904       1.55394937
H        2.89954882       3.16280880       1.59850943
H        4.73736795       0.77083969      -0.70391974
H        4.85783795       1.03281959       1.04310960
H        6.14052756       2.79477886      -0.08945996
