16
Properties=species:S:1:pos:R:3 atomization_energy=-1600.59 smiles=C.C.C.C.C.C.H.H.H.H.H.H.H.H.H.H pbc="F F F"
C        0.89358964       0.04694998      -0.35034987
C        1.92495921       0.27621990       0.47130981
C        2.91736896       1.32743942       0.14307995
C        2.43006910       2.79398882       0.28922988
C        3.83854837       3.13031887       0.82093969
C        3.94005846       1.65581941       1.26360945
H        0.16498993      -0.72386974      -0.12162995
H        0.74860968       0.61765973      -1.26299945
H        2.04930919      -0.31255989       1.37546941
H        3.41045855       1.13672960      -0.82069965
H        1.63623939       2.94927877       1.02953960
H        2.14959913       3.29566877      -0.64097974
H        4.55309800       3.40685854       0.03681998
H        3.88083858       3.87278846       1.62167937
H        4.92817782       1.20105956       1.15318955
H        3.58391862       1.48501941       2.28646915
