15
Properties=species:S:1:pos:R:3 atomization_energy=-1506.19 smiles=C.C.C.N.N.C.C.H.H.H.H.H.H.H.H pbc="F F F"
C        1.12198955       0.15727993       0.47320980
C        2.51335911      -0.15222994       0.02527999
C        3.37866860       0.96513961      -0.53356977
N        3.64443851       0.41262983       0.79116971
N        4.64832832      -0.52657978       0.71283971
C        4.23071832      -1.61527936       0.15193994
C        2.82841891      -1.56227933      -0.33839987
H        0.99495962       1.21533950       0.72541969
H        0.86184965      -0.43227984       1.35826950
H        0.40840984      -0.08548996      -0.32045988
H        2.99092881       1.97651919      -0.53730976
H        4.09385839       0.76298973      -1.32238952
H        4.84895791      -2.51279893       0.01579000
H        2.79110895      -1.74596929      -1.41461949
H        2.22663914      -2.30237914       0.19545992
