17
Properties=species:S:1:pos:R:3 atomization_energy=-1600.69 smiles=C.N.C.C.O.N.C.H.H.H.H.H.H.H.H.H.H pbc="F F F"
C        1.14311951       0.72526974       1.36762948
N        1.64502935       2.01059917       0.94424962
C        2.92464897       2.17444921       0.45336981
C        3.17867867       3.50522862      -0.28545989
O        2.19427917       4.47214812       0.06327998
N        3.82144838       1.25489948       0.60720975
C        5.15016775       1.46627940       0.05593998
H        0.10024996       0.82179969       1.68371930
H        1.71828931       0.34314985       2.21696905
H        1.18577952      -0.00049000       0.54939977
H        0.95589962       2.64275887       0.54142977
H        3.11695869       3.32302880      -1.36200944
H        4.16281826       3.91047842      -0.04066998
H        2.27446904       4.58797826       1.02821959
H        5.71597770       0.53208979       0.12708995
H        5.69701753       2.22413904       0.62558975
H        5.11932783       1.74436926      -1.00237961
