11
Properties=species:S:1:pos:R:3 atomization_energy=-1213.87 smiles=N.C.C.C.O.N.C.H.H.H.H pbc="F F F"
N        0.99115964       0.07452997      -0.18164993
C        2.34530901      -0.04869998      -0.10032996
C        3.15704883      -1.10125952      -0.04643998
C        4.54174814      -0.60877975       0.04201998
O        5.51255783      -1.34176944       0.11133995
N        4.52276829       0.76260972       0.04129998
C        3.27672879       1.08380956      -0.04566998
H        0.47709980      -0.76336968       0.08167997
H        0.61354976       0.91939966       0.24167990
H        2.91337884      -2.14699911      -0.06217997
H        2.89069881       2.11282916      -0.07722997
