12
Properties=species:S:1:pos:R:3 atomization_energy=-1223.24 smiles=O.C.C.O.N.C.C.H.H.H.H.H pbc="F F F"
O        1.09763958       0.02628999       0.81811969
C        2.44148911       0.00763000       0.30801988
C        2.66727891       0.73788971      -0.98414962
O        4.02335830       1.11923951      -1.31877954
N        4.73245809      -0.08375997      -1.64039932
C        3.96608844      -1.10435954      -1.44456945
C        2.62940903      -0.75609970      -0.97367964
H        0.95579964       0.79547971       1.39799944
H        3.25334878      -0.00571000       1.02835957
H        1.84862925       1.27822953      -1.43979938
H        4.26315829      -2.14983909      -1.61199931
H        1.78193924      -1.24883950      -1.42661948
