15
Properties=species:S:1:pos:R:3 atomization_energy=-1426.76 smiles=C.N.O.C.N.C.C.H.H.H.H.H.H.H.H pbc="F F F"
C        2.35930911      -1.22518950       0.83253967
N        2.11389918       0.04499998       0.16972992
O        0.82919968       0.53930980       0.44975984
C        3.07879889       1.04114961       0.07237997
N        2.72796886       2.29626919       0.13782994
C        4.52432820       0.71681974      -0.14713994
C        5.47078792       1.66415933      -0.15817994
H        3.15189875      -1.78501932       0.32763987
H        1.45876939      -1.84834929       0.80846966
H        2.64251890      -1.06777958       1.87802925
H        0.45127982       0.65269978      -0.44436982
H        1.71955929       2.28362916       0.33078988
H        4.78724829      -0.31913987      -0.30979989
H        5.22390803       2.71231902      -0.00755000
H        6.51210755       1.41264942      -0.32460987
