18
Properties=species:S:1:pos:R:3 atomization_energy=-1781.29 smiles=C.C.C.C.C.N.C.H.H.H.H.H.H.H.H.H.H.H pbc="F F F"
C        0.76582972       0.06230997      -0.02021999
C        2.24362911       0.02597999       0.17133992
C        3.15418866      -0.87128967      -0.63429978
C        2.75659887      -1.47423944      -1.94738918
C        2.95773893      -0.34354986      -2.96529877
N        2.80190899       0.91723964      -2.21991905
C        3.18874870       0.62206973      -0.83052966
H        0.35946985       0.98730963       0.40190985
H        0.30187987      -0.77884969       0.50499979
H        0.46029981       0.01422999      -1.06930959
H        2.49237903       0.15577993       1.22001948
H        3.99884836      -1.34801943      -0.15845995
H        3.38223858      -2.33770905      -2.19628924
H        1.71294935      -1.80538927      -1.92486925
H        3.97614839      -0.39563983      -3.36911861
H        2.25410918      -0.41160984      -3.79958842
H        3.38798870       1.63884937      -2.63727899
H        4.04570829       1.16659957      -0.44547983
