18
Properties=species:S:1:pos:R:3 atomization_energy=-1705.39 smiles=C.O.C.C.C.C.N.H.H.H.H.H.H.H.H.H.H.H pbc="F F F"
C        1.88705931      -0.57836980      -0.96400962
O        1.73865926       0.72474969      -0.41914985
C        2.99858884       1.38010941      -0.17545993
C        3.33456866       2.51783900      -1.09993958
C        2.87929898       2.80289888       0.30823988
C        3.82795853       3.31245864       1.34032951
N        3.74511843       4.76371789       1.35834949
H        0.89261967      -0.98427963      -1.16729953
H        2.39269909      -1.23047950      -0.24552990
H        2.45175899      -0.53946978      -1.90018923
H        3.81820845       0.78977968       0.22393991
H        2.64384894       2.74033890      -1.90516925
H        4.37635812       2.67129905      -1.35325947
H        1.87281924       3.18055878       0.45709981
H        4.85808827       3.00253883       1.13171956
H        3.55027858       2.91689886       2.32280914
H        4.02452836       5.12828811       0.44964982
H        4.41103803       5.13032796       2.03506925
