15
Properties=species:S:1:pos:R:3 atomization_energy=-1456.7 smiles=C.N.N.C.C.C.O.H.H.H.H.H.H.H.H pbc="F F F"
C        3.16048886       0.13385995       1.57846940
N        2.47560909       0.39997983       0.31785989
N        2.79554898       1.62963941      -0.26241990
C        2.36922901       2.93340890       0.26283989
C        3.64714855       3.51492874      -0.37493986
C        4.07934834       2.04458920      -0.52457981
O        5.12386777       1.46456947      -0.70996970
H        2.84259891      -0.84124964       1.96100927
H        2.91958897       0.88380966       2.33820917
H        4.24635857       0.09059997       1.45053948
H        1.46553943       0.35154986       0.45212983
H        2.32856911       2.98521881       1.35473952
H        1.43037947       3.28579858      -0.17146994
H        3.50897851       4.02985836      -1.32941946
H        4.27446828       4.10668843       0.29460990
