21
Properties=species:S:1:pos:R:3 atomization_energy=-2044.98 smiles=C.C.C.C.C.C.C.H.H.H.H.H.H.H.H.H.H.H.H.H.H pbc="F F F"
C        1.16787952       0.28391988       0.11200995
C        2.67293895      -0.02768999      -0.00149000
C        3.07097889      -0.92195962       1.18529958
C        2.92018876      -0.81125969      -1.30503947
C        3.43333869       1.28989947      -0.07920997
C        3.88793842       2.05552915       1.13989951
C        4.90437793       1.40736938       0.23881991
H        0.82136966       0.88550967      -0.73613973
H        0.95251965       0.85242968       1.02389962
H        0.57018979      -0.63397976       0.13709994
H        2.87923893      -0.43265982       2.14556914
H        4.13030840      -1.19524951       1.15343961
H        2.49705902      -1.85619932       1.18074955
H        2.61745888      -0.22823991      -2.18239916
H        2.35925915      -1.75227934      -1.31857944
H        3.98308851      -1.05040960      -1.42401946
H        3.08054880       1.89058929      -0.91595962
H        3.74770861       1.63684940       2.12816914
H        3.80576852       3.13697866       1.11458956
H        5.50586802       2.05277924      -0.39249985
H        5.44541803       0.54938980       0.61699976
