12
Properties=species:S:1:pos:R:3 atomization_energy=-1305.66 smiles=N.C.C.C.O.C.C.H.H.H.H.H pbc="F F F"
N        0.88218963      -0.02201999       0.21169992
C        2.24066901      -0.00391000       0.02465999
C        3.03688868       1.06996956       0.08162997
C        4.50670841       1.02447960      -0.12087995
O        5.15227775       2.06694916      -0.07074997
C        5.21385818      -0.21358991      -0.38363984
C        5.80953759      -1.23403951      -0.60110977
H        0.39458985      -0.75782968      -0.29585988
H        0.42265984       0.88302964       0.13580995
H        2.63799889      -0.99815962      -0.17394993
H        2.64197891       2.05822922       0.29026989
H        6.34892745      -2.13289909      -0.79274968
