15
Properties=species:S:1:pos:R:3 atomization_energy=-1445.63 smiles=N.C.C.C.C.N.O.H.H.H.H.H.H.H.H pbc="F F F"
N        3.14931866      -1.06949960      -0.49237981
C        2.43934909       0.04545998       0.13785995
C        3.18704874       1.37514946       0.01460999
C        3.36482873       1.84289932      -1.41078948
C        3.19485865       3.29188860      -1.17737954
N        2.66903892       3.62057857      -0.04771998
O        2.42217896       2.41356916       0.65072976
H        2.58340904      -1.91426920      -0.40036984
H        4.00944854      -1.25919946       0.02308999
H        2.26857912      -0.18181992       1.19678949
H        1.44352946       0.13835995      -0.31214988
H        4.15463844       1.31770953       0.52941981
H        2.58199902       1.50581945      -2.09620911
H        4.34809854       1.60860936      -1.82316928
H        3.46481852       4.02211835      -1.95262922
