16
Properties=species:S:1:pos:R:3 atomization_energy=-1558.91 smiles=O.C.C.C.N.C.C.H.H.H.H.H.H.H.H.H pbc="F F F"
O        1.03998958       0.31603988      -0.39334986
C        2.41227899       0.06285997      -0.05195998
C        3.10662876      -0.95862959      -0.89735966
C        3.43818874       0.50107979      -1.07048962
N        4.73484817       1.00278958      -0.58041980
C        5.76067768       0.84012967      -1.60796933
C        5.17219779       2.19041926      -1.30755950
H        0.74354969       1.15852951      -0.00732000
H        2.68702887       0.10270995       0.99748962
H        2.53518905      -1.44376943      -1.67897938
H        3.83568845      -1.59815932      -0.41603984
H        3.03526872       0.96870960      -1.96793917
H        5.49407760       0.34937987      -2.53653902
H        6.75716712       0.62406977      -1.24215953
H        5.77360764       2.89085878      -0.74096973
H        4.50903844       2.64312904      -2.03358920
