18
Properties=species:S:1:pos:R:3 atomization_energy=-1707.8 smiles=C.O.C.C.C.N.C.H.H.H.H.H.H.H.H.H.H.H pbc="F F F"
C        1.90989919      -0.50286980      -1.26146956
O        2.20269921       0.08581997      -0.00187000
C        3.07847868       1.23294956      -0.03574999
C        2.45855907       2.56571911      -0.52103979
C        3.13029868       3.28257858       0.66227972
N        4.42686828       3.81241846       0.23380990
C        3.32810873       1.91278927       1.33271945
H        1.25517944      -1.36284945      -1.09960953
H        2.83197880      -0.84402969      -1.74070932
H        1.39712941       0.21677991      -1.90579919
H        4.01970833       0.98918962      -0.54641980
H        1.36284945       2.57990896      -0.46658983
H        2.75074883       2.88276879      -1.52724944
H        2.50603898       4.00053847       1.19954949
H        5.05115802       3.14752887      -0.22070991
H        4.96710799       4.22471839       0.99458964
H        4.30505840       1.71663931       1.78608933
H        2.55695892       1.68252930       2.07850921
