10
Properties=species:S:1:pos:R:3 atomization_energy=-1073.75 smiles=C.N.O.C.O.C.C.H.H.H pbc="F F F"
C        1.79037934       2.40132908      -1.54826939
N        2.60134904       1.87981929      -0.69344976
O        3.73819850       2.70612883      -0.57873978
C        4.62696798       2.18008907       0.32319988
O        4.52604809       1.15000955       0.97447959
C        5.79810749       3.01730879       0.45337981
C        6.77382755       3.71063862       0.56499977
H        0.83736966       1.89943931      -1.77679925
H        1.99873923       3.34553876      -2.07933913
H        7.64203682       4.31873828       0.67064974
