19
Properties=species:S:1:pos:R:3 atomization_energy=-1730.71 smiles=C.N.C.C.N.C.O.H.H.H.H.H.H.H.H.H.H.H.H pbc="F F F"
C        3.01987878      -0.06089998       1.62577937
N        3.03580871       0.50366981       0.27882989
C        3.57376860       1.87724930       0.26255990
C        5.09838787       1.94679923       0.51006982
N        5.83647748       0.96399965      -0.32455988
C        5.64489800       3.35818863       0.24666991
O        7.06204737       3.35818863       0.42305984
H        2.53959904      -1.04376957       1.59787936
H        2.45344911       0.56855979       2.31919904
H        4.03090831      -0.20784993       2.01562914
H        2.07440920       0.53087980      -0.06537998
H        3.03956870       2.51048910       0.98118959
H        3.36159864       2.28860917      -0.73242970
H        5.31603771       1.68775937       1.55294938
H        5.64281779       1.17064948      -1.30673943
H        5.35029773       0.06941997      -0.18240994
H        5.21212820       4.08452845       0.94129961
H        5.43344794       3.68656849      -0.77668968
H        7.34343709       2.46373893       0.13415994
