18
Properties=species:S:1:pos:R:3 atomization_energy=-1703.82 smiles=C.O.C.C.N.C.C.H.H.H.H.H.H.H.H.H.H.H pbc="F F F"
C        2.00365918      -0.49374982      -1.42900944
O        2.24282922       0.01619999      -0.12575995
C        3.06291867       1.20586950      -0.06154998
C        2.41340893       2.54767894      -0.46724983
N        3.09863869       3.20400869       0.67171975
C        3.18963867       1.87370921       1.33483941
C        4.49842842       1.67491937       2.07431912
H        1.38920948      -1.39369947      -1.34358950
H        2.95032872      -0.75508968      -1.91079926
H        1.46806944       0.24490991      -2.03212921
H        4.03465845       1.03875960      -0.54561979
H        1.31954953       2.56830903      -0.38920986
H        2.70050891       2.93071880      -1.45075938
H        4.00438854       3.60190858       0.42148984
H        2.32997914       1.67129930       1.98892922
H        5.36598769       1.88912930       1.44038945
H        4.58610798       0.63979972       2.42021910
H        4.55086840       2.32503899       2.95340893
