15
Properties=species:S:1:pos:R:3 atomization_energy=-1489.79 smiles=N.C.O.N.C.C.C.H.H.H.H.H.H.H.H pbc="F F F"
N        3.16808883      -1.01949959      -0.48239980
C        2.53107907       0.06165998       0.03517998
O        1.38611943      -0.03406999       0.45852983
N        3.25310881       1.20829958       0.02399999
C        2.82950898       2.55599905       0.34615988
C        3.96080842       3.03848872      -0.56688980
C        4.49036845       1.60074937      -0.60952974
H        4.16919845      -1.06541953      -0.37550985
H        2.66449897      -1.88840928      -0.36138986
H        2.94901886       2.79199893       1.40729949
H        1.82094927       2.80625893       0.00764000
H        3.61894851       3.41518875      -1.53745939
H        4.63936804       3.77083856      -0.11973995
H        4.63765824       1.19449958      -1.61268931
H        5.36472805       1.40517940       0.01652999
