15
Properties=species:S:1:pos:R:3 atomization_energy=-1428.17 smiles=C.N.C.C.C.N.O.H.H.H.H.H.H.H.H pbc="F F F"
C        0.81592971       2.15992907      -0.63433977
N        2.07304914       1.59913938      -0.14805994
C        3.07695889       2.39938916      -0.22962991
C        4.41488810       1.98797919       0.23350991
C        5.43230791       2.85314888       0.17075993
N        6.72671730       2.62684888       0.56754977
O        7.72012678       3.44076858       0.03693999
H       -0.00722000       1.77475928      -0.02425999
H        0.64350974       1.85138925      -1.67004937
H        0.77794969       3.25387868      -0.57819979
H        2.99469890       3.42014858      -0.64463974
H        4.51486830       0.98276962       0.62266977
H        5.29196783       3.85915853      -0.21843992
H        6.98637726       1.63920933       0.62716978
H        7.88332707       4.08547847       0.75207968
