9
Properties=species:S:1:pos:R:3 atomization_energy=-1059.31 smiles=N.C.C.C.C.N.O.H.H pbc="F F F"
N        0.95919961      -0.13107995      -0.00663000
C        2.11794922      -0.04980998      -0.00260000
C        3.52527861       0.08383997       0.00220000
C        4.35303818       1.17660955       0.00273000
C        5.64258766       0.61284973       0.00870000
N        5.60993802      -0.72311969       0.01162000
O        4.26056836      -1.05608958       0.00746999
H        4.07259847       2.21904902      -0.00067000
H        6.60300736       1.11045952       0.01107000
