12
Properties=species:S:1:pos:R:3 atomization_energy=-1323.46 smiles=O.C.C.C.C.O.N.H.H.H.H.H pbc="F F F"
O        1.28172949      -0.16839993       0.68180972
C        2.39364913      -0.05634998       0.19428993
C        3.12015875       1.23566957      -0.03538999
C        4.39835838       0.82311970      -0.75050968
C        4.36163813      -0.67596976      -0.73518970
O        5.24236808      -1.41168942      -1.14987959
N        3.18283885      -1.08131955      -0.20713991
H        3.33845860       1.70615937       0.92787963
H        2.51614889       1.91015922      -0.64777976
H        4.40493817       1.17661951      -1.78615935
H        5.28674810       1.18994955      -0.22925992
H        2.91757890      -2.05073915      -0.12211995
