18
Properties=species:S:1:pos:R:3 atomization_energy=-1785.3 smiles=C.C.C.C.C.C.N.H.H.H.H.H.H.H.H.H.H.H pbc="F F F"
C        1.02675960       0.05900998       0.38886985
C        2.50291891       0.02296999      -0.00765000
C        2.87912891      -1.31473946      -0.67307975
C        2.68417904      -1.07272956      -2.13967923
C        3.73533857      -0.37023985      -2.95342886
C        2.61923907       0.41388984      -2.33565911
N        2.75522897       1.07422955      -1.02187958
H        0.76356971       1.02900958       0.82385966
H        0.81185967      -0.71177973       1.13581957
H        0.36581986      -0.11567995      -0.46874981
H        3.11076875       0.19575993       0.88761967
H        2.26388904      -2.14679926      -0.31652988
H        3.93101844      -1.55638941      -0.47719982
H        1.93451928      -1.68817938      -2.61306907
H        4.73336799      -0.27099989      -2.54550889
H        3.71521844      -0.50926980      -4.02909834
H        1.84705925       0.80986966      -2.98704872
H        3.71464842       1.40508945      -0.91311964
