18
Properties=species:S:1:pos:R:3 atomization_energy=-1699.17 smiles=C.N.C.C.C.O.C.H.H.H.H.H.H.H.H.H.H.H pbc="F F F"
C        2.11205917      -0.99231961      -0.41390984
N        1.88307929       0.37612986       0.03224999
C        3.12894872       1.15756951       0.07215997
C        3.45850873       2.07075923      -1.07281952
C        3.05306892       2.65474889       0.24892989
O        4.11797849       3.22733873       1.03596957
C        4.02207848       4.64023808       1.14571954
H        1.15738960      -1.52284941      -0.47376982
H        2.75742879      -1.53326943       0.28555987
H        2.56944907      -1.01370960      -1.40773943
H        1.46107948       0.35225986       0.96115959
H        3.96433853       0.67205976       0.57394978
H        2.75376898       2.14234914      -1.89231928
H        4.49668834       2.15293924      -1.36971942
H        2.05987922       3.08752879       0.32727989
H        4.91514793       5.00930787       1.65619929
H        3.14198869       4.90946796       1.73667934
H        3.96577833       5.09991801       0.15487993
