18
Properties=species:S:1:pos:R:3 atomization_energy=-1710.03 smiles=C.N.C.C.O.C.C.H.H.H.H.H.H.H.H.H.H.H pbc="F F F"
C        0.59745979       0.73905971       0.08341996
N        1.82983928       0.78115966      -0.68494973
C        2.97795874       1.38387949       0.03873998
C        3.57628863       0.58948978       1.19347953
O        3.61606866      -0.79750972       0.86966964
C        3.93509838       2.18756918      -0.81782970
C        3.02405890       2.89285876       0.14048994
H        0.70071974       0.13466995       0.98915960
H       -0.19689991       0.29826990      -0.52641981
H        0.27451988       1.74599932       0.36485986
H        2.08004919      -0.14014994      -1.04404959
H        2.97470871       0.71757969       2.09948917
H        4.59848836       0.91022962       1.41927942
H        2.68988905      -1.07261955       0.77401969
H        3.72324863       2.28196908      -1.87729926
H        4.99388791       2.15707924      -0.58838975
H        3.46620862       3.34131878       1.02263960
H        2.20148903       3.46409863      -0.27509990
