13
Properties=species:S:1:pos:R:3 atomization_energy=-1307.72 smiles=C.N.O.C.C.C.N.H.H.H.H.H.H pbc="F F F"
C        1.01350963       0.06993997      -0.06153997
N        2.36705896      -0.05537998       0.43123983
O        3.14625864       1.08913955       0.16045994
C        4.40520816       0.57279977      -0.08343997
C        4.53666821      -0.75003971      -0.10620996
C        3.15993878      -1.14788958       0.16565993
N        2.81384880      -2.38848895       0.13128995
H        0.59793979       1.04892962       0.20203992
H        0.36952985      -0.69397971       0.38652985
H        0.98030965      -0.03830999      -1.15158952
H        5.16427812       1.31856947      -0.24697991
H        5.37967767      -1.38479949      -0.28785988
H        1.82393927      -2.46449895       0.37265986
