20
Properties=species:S:1:pos:R:3 atomization_energy=-1856.03 smiles=C.O.C.C.C.C.N.H.H.H.H.H.H.H.H.H.H.H.H.H pbc="F F F"
C        1.12835952      -0.19391993       0.44108983
O        2.52040899       0.05608998       0.57199976
C        2.89785896       1.40283941       0.23331991
C        2.39498900       2.39125904       1.28538955
C        4.44652842       1.45744945       0.08845997
C        5.18506819       1.04065959       1.36403944
N        4.86898797       0.57622978      -1.01668963
H        0.96483959      -1.27106950       0.53807982
H        0.76018967       0.12546995      -0.53833978
H        0.57108979       0.30540989       1.23828953
H        2.45767894       1.66308933      -0.73887973
H        2.61954893       2.04515922       2.29946901
H        1.30643953       2.49545898       1.22626948
H        2.82954885       3.38451864       1.13876957
H        4.74612788       2.47991891      -0.17028993
H        4.92780790       0.02125999       1.67158935
H        4.95045816       1.71504937       2.19357920
H        6.27069769       1.08086952       1.21746955
H        4.43194821      -0.33609987      -0.85636964
H        5.87372763       0.41856983      -0.96881962
