15
Properties=species:S:1:pos:R:3 atomization_energy=-1438.35 smiles=N.C.C.C.C.N.O.H.H.H.H.H.H.H.H pbc="F F F"
N        2.02124919      -0.70783971      -1.02204959
C        3.12591872      -0.33502986      -0.15446994
C        3.05821875       1.12858952       0.12586995
C        4.05021846       1.98688925      -0.15395993
C        3.89698854       3.41999869       0.15969993
N        4.83678798       4.26991824      -0.10101996
O        4.41886837       5.54460794       0.29963987
H        2.05427923      -1.71220939      -1.18942949
H        2.15280903      -0.26997990      -1.93333925
H        4.07569837      -0.61779978      -0.62135973
H        3.04550882      -0.88329963       0.79006967
H        2.13985914       1.48062948       0.59130979
H        4.98295792       1.68357938      -0.61369977
H        2.94436891       3.72916857       0.62602975
H        5.18393775       6.09970743       0.05878998
