16
Properties=species:S:1:pos:R:3 atomization_energy=-1645.29 smiles=C.C.C.C.C.N.C.H.H.H.H.H.H.H.H.H pbc="F F F"
C        1.00171964       0.03512999      -0.02103999
C        2.52449903       0.00946000       0.00114000
C        3.09097866       1.33686942       0.47443982
C        3.83641844       1.14457950       1.57766939
C        3.88905852      -0.25278990       2.02384922
N        4.48771847      -1.25847956       1.16318956
C        3.05598890      -1.01108958       1.00482962
H        0.60639976      -0.93376960      -0.34416987
H        0.63142976       0.79992970      -0.71186975
H        0.58686977       0.24405990       0.97159961
H        2.90728883      -0.22052992      -1.00014963
H        2.92716874       2.28402911      -0.01780999
H        4.35585823       1.93421926       2.10468921
H        3.75546855      -0.47714983       3.07369877
H        5.02404805      -0.81468969       0.41629983
H        2.37519917      -1.78279931       1.33065942
