16
Properties=species:S:1:pos:R:3 atomization_energy=-1496.03 smiles=C.N.C.N.C.C.H.H.H.H.H.H.H.H.H.H pbc="F F F"
C        0.96418959       0.15624993       0.35162985
N        2.38977912      -0.09230996       0.16148994
C        3.07083884       0.98312964      -0.02833999
N        4.42882839       1.05265958      -0.23659990
C        5.24058814      -0.14104994      -0.03654999
C        5.12262782       2.32391915      -0.11936995
H        0.48629980      -0.76130971       0.70822975
H        0.48849981       0.43713984      -0.59368978
H        0.77929966       0.93520966       1.09966958
H        2.59140895       1.97873920      -0.04210998
H        4.79744802      -1.00755959      -0.53938979
H        5.33505793      -0.36339984       1.03154961
H        6.24553774      -0.00949000      -0.45112981
H        4.54513796       3.13011878      -0.58437976
H        6.09544758       2.29103912      -0.62157976
H        5.28330782       2.57429888       0.93448963
