14
Properties=species:S:1:pos:R:3 atomization_energy=-1408.84 smiles=N.C.O.C.C.C.O.H.H.H.H.H.H.H pbc="F F F"
N        1.60464940       0.51967979      -1.16464955
C        2.93288885       0.28708989      -0.94667963
O        3.75470853       0.46218983      -1.83769927
C        3.26471883      -0.18941993       0.45176981
C        4.72137822      -0.46563983       0.63991977
C        5.64306760       0.54325980       1.27171951
O        5.12431793      -0.57152979       2.01270917
H        0.89312964       0.37913986      -0.46158982
H        1.32655941       0.83380965      -2.08574922
H        2.70231889      -1.11058960       0.63984974
H        2.91689886       0.56963977       1.16217948
H        5.12628813      -1.18186952      -0.06381997
H        5.26210796       1.52794941       1.51133945
H        6.69111739       0.51872979       0.99854960
