16
Properties=species:S:1:pos:R:3 atomization_energy=-1567.83 smiles=C.C.C.O.C.C.H.H.H.H.H.H.H.H.H.H pbc="F F F"
C        0.74006972       1.27858948      -0.20171992
C       -0.72514969       1.23582955       0.21997992
C       -1.38315946      -0.05594998      -0.24757990
O       -0.66451973      -1.19248951       0.23403991
C        0.67681974      -1.22796956      -0.25542990
C        1.45421948      -0.00371000       0.21031992
H        0.80182969       1.39639941      -1.29055944
H        1.23591951       2.14742908       0.24526991
H       -1.26189953       2.10307921      -0.17834993
H       -0.77510970       1.28830953       1.31466944
H       -2.40316908      -0.11693996       0.14336994
H       -1.44355949      -0.09973996      -1.34073942
H        1.14788958      -2.13762904       0.12991995
H        0.66335976      -1.29966949      -1.34938946
H        1.53280944      -0.02394999       1.30428955
H        2.47098891      -0.02094999      -0.19532993
