18
Properties=species:S:1:pos:R:3 atomization_energy=-1734.19 smiles=N.C.C.C.C.O.C.H.H.H.H.H.H.H.H.H.H.H pbc="F F F"
N        0.99348960       0.00032000       0.11781995
C        2.45947907      -0.00262000       0.01244999
C        2.92622881      -1.36058944      -0.51883981
C        2.61345892      -1.51703936      -2.00555923
C        3.13515884      -0.32102986      -2.79249880
O        2.61709905       0.90552964      -2.28409900
C        2.96869894       1.12084951      -0.91561967
H        0.66307974       0.92761966       0.37950984
H        0.69444975      -0.64352974       0.84756965
H        2.86650881       0.15881994       1.01732961
H        2.47505901      -2.18310923       0.04866998
H        4.01107835      -1.44306946      -0.37489984
H        3.05631870      -2.44302909      -2.38868905
H        1.52752940      -1.59355932      -2.13990910
H        4.23084828      -0.28510988      -2.77407887
H        2.82783880      -0.40432983      -3.84023848
H        4.05980831       1.20767947      -0.84254965
H        2.55038897       2.08705920      -0.61163974
