14
Properties=species:S:1:pos:R:3 atomization_energy=-1363.56 smiles=N.C.N.C.C.C.H.H.H.H.H.H.H.H pbc="F F F"
N        1.24778954       1.20149951      -1.78570932
C        2.49956896       1.38038949      -1.54948941
N        3.27542877       0.46843983      -0.91347965
C        4.51972820       0.88989967      -0.29035988
C        5.68164753      -0.05872998      -0.20263991
C        5.75632749       1.13709952      -1.10676956
H        0.87666963       2.01979917      -2.28134910
H        3.02633871       2.30022903      -1.85847926
H        2.74109892      -0.29947989      -0.51766981
H        4.35550850       1.53172945       0.57207975
H        5.58697789      -1.03459960      -0.66448976
H        6.27682732      -0.04979998       0.70275971
H        6.40086731       1.95742919      -0.81423966
H        5.70979760       0.96506959      -2.17584915
