15
Properties=species:S:1:pos:R:3 atomization_energy=-1482.23 smiles=N.C.C.C.C.C.H.H.H.H.H.H.H.H.H pbc="F F F"
N        0.82179969       0.09190996       0.09823996
C        2.27991914       0.18893992       0.15440993
C        2.83382889       1.60336933       0.15223995
C        2.05755916       2.70404887       0.19135992
C        4.28324840       1.78489934       0.10954995
C        5.21148778       0.81823968       0.09350997
H        0.55936976      -0.89103964       0.13142995
H        0.51494981       0.43310982      -0.81162967
H        2.68058887      -0.36143986      -0.70521975
H        2.61576901      -0.32182988       1.06390958
H        0.97538963       2.63408902       0.24411991
H        2.47053900       3.70765859       0.19289993
H        4.63988835       2.81457879       0.09607996
H        4.97186797      -0.23785990       0.11181996
H        6.26580751       1.07898952       0.06657998
