13
Properties=species:S:1:pos:R:3 atomization_energy=-1318.81 smiles=C.O.C.N.N.C.C.H.H.H.H.H.H pbc="F F F"
C        3.20632862      -1.19121953       0.44124984
O        2.46138896       0.00793000       0.21037993
C        3.11705887       1.16283958       0.08764997
N        2.51687913       2.29105906      -0.12220995
N        3.51712856       3.31203876      -0.20021992
C        4.66798796       2.74977886      -0.03386998
C        4.59042839       1.28074943       0.17709992
H        2.49722908      -2.02054923       0.51207979
H        3.75572846      -1.12402952       1.38475950
H        3.88481835      -1.38635940      -0.39429986
H        5.62858782       3.28165858      -0.04262998
H        5.10471785       0.75319972      -0.62652974
H        4.97499788       1.01696959       1.16257955
