17
Properties=species:S:1:pos:R:3 atomization_energy=-1602.42 smiles=C.N.C.C.N.C.O.H.H.H.H.H.H.H.H.H.H pbc="F F F"
C        0.83593964      -0.27945989      -0.19657993
N        2.23892919      -0.11292995       0.17550993
C        2.99240874      -1.35604950       0.29577989
C        2.87130891       1.11442957       0.02457999
N        4.15476839       1.29833945       0.06852998
C        2.04020924       2.40010905      -0.20157992
O        2.88254876       3.53413872      -0.35163985
H        0.21334991       0.50722980       0.24016990
H        0.43100982      -1.23156957       0.16298994
H        0.72953969      -0.25336990      -1.28570951
H        2.34671904      -2.20175903       0.55579978
H        3.74074856      -1.28101955       1.09141961
H        3.49569857      -1.58943938      -0.64817976
H        4.63482810       0.41257984       0.22349992
H        1.38755949       2.56152889       0.66126977
H        1.43649939       2.29395910      -1.10706958
H        3.78493857       3.16549864      -0.22000991
