15
Properties=species:S:1:pos:R:3 atomization_energy=-1424.26 smiles=C.N.C.N.O.C.C.H.H.H.H.H.H.H.H pbc="F F F"
C        1.17094950      -0.50309979      -0.01605999
N        2.54379909      -0.07829997      -0.20337992
C        2.91734877       1.11673954       0.13020995
N        2.13499924       2.15891923       0.62331977
O        0.93745964       2.34434915      -0.08182997
C        4.39902807       1.31612943      -0.04237999
C        5.11567811       2.30195901       0.51226979
H        1.13269949      -1.59689943      -0.04234998
H        0.52951979      -0.13674995      -0.82292969
H        0.76799970      -0.19901992       0.95537963
H        2.63990904       3.04075869       0.67617977
H        0.27649989       1.92011924       0.49622979
H        4.89012828       0.55567979      -0.64440975
H        4.69565809       3.05786877       1.16323952
H        6.18811774       2.34623911       0.34203988
