15
Properties=species:S:1:pos:R:3 atomization_energy=-1440.44 smiles=N.N.C.C.C.C.O.H.H.H.H.H.H.H.H pbc="F F F"
N        0.94665963       1.23554946       0.32946987
N        2.23287904       1.63558938       0.20750992
C        3.05450872       0.64555974       0.04437998
C        4.52042817       0.83749968      -0.11645995
C        5.26704810      -0.26700990      -0.27756990
C        5.01074817       2.25494919      -0.09290996
O        6.43584749       2.31923916      -0.13322994
H        0.33266987       2.00446917       0.04399998
H        0.71653971       1.10202951       1.31839953
H        2.69605905      -0.40135983       0.01240999
H        4.83823787      -1.26447949      -0.29246987
H        6.34102746      -0.20062992      -0.42646982
H        4.68177836       2.77238901       0.81474968
H        4.63042794       2.80276893      -0.96100965
H        6.74953713       1.97498918       0.72008969
