14
Properties=species:S:1:pos:R:3 atomization_energy=-1450.84 smiles=C.O.C.C.C.C.N.H.H.H.H.H.H.H pbc="F F F"
C        1.35135942      -0.34457987      -0.08619997
O        2.72796886       0.00268000      -0.15840993
C        2.92652883       1.40022942       0.02630999
C        4.38640848       1.73464933      -0.04052998
C        5.38462790       0.85667969      -0.22958990
C        6.74694720       1.25648955      -0.28131989
N        7.85723703       1.58862940      -0.32258987
H        1.25946945      -1.42177939      -0.24866990
H        0.78271970       0.17582992      -0.86296968
H        0.94772964      -0.10445996       0.90207964
H        2.53446889       1.70266937       1.00378958
H        2.39660897       1.95296924      -0.75765967
H        4.62155799       2.79113899       0.07837997
H        5.18120803      -0.20235992      -0.35071985
