15
Properties=species:S:1:pos:R:3 atomization_energy=-1437.4 smiles=C.N.O.C.C.N.C.H.H.H.H.H.H.H.H pbc="F F F"
C        1.03137960       0.01425999       0.10506996
N        2.44863892       0.06179997      -0.19161993
O        3.10023872       1.10672956       0.48826981
C        4.38089807       1.25984947      -0.13576994
C        5.20035795       0.00175000       0.13112994
N        4.48199812      -1.23656951      -0.22779991
C        3.20494862      -1.08470962      -0.32058986
H        0.58821974       1.01057962       0.01367000
H        0.86143967      -0.35224986       1.12197958
H        0.51329981      -0.64695974      -0.59765976
H        4.87260791       2.13429927       0.30184988
H        4.25293837       1.44670947      -1.20911953
H        5.45448783      -0.05841998       1.19613948
H        6.13839738       0.04683999      -0.43254984
H        2.59011904      -1.96573922      -0.56801980
