13
Properties=species:S:1:pos:R:3 atomization_energy=-1357.68 smiles=N.C.C.C.C.C.H.H.H.H.H.H.H pbc="F F F"
N        5.38432763      -1.86653922      -0.22008992
C        4.59067820      -1.03863961      -0.12246995
C        3.59500859       0.00000000       0.00000000
C        4.36117838       1.28634955       0.11354996
C        4.71855817       2.09109915      -1.11241951
C        3.66491847       2.59569909      -0.16662994
H        2.98542875      -0.14439994       0.89778963
H        2.92246882       0.00664000      -0.86430969
H        5.06157778       1.28402949       0.94501961
H        4.39958825       1.73661929      -2.08622916
H        5.67792766       2.59764885      -1.12321953
H        3.91223843       3.44718864       0.45864981
H        2.63413898       2.58321904      -0.50362982
