13
Properties=species:S:1:pos:R:3 atomization_energy=-1317.5 smiles=C.N.N.C.C.C.O.H.H.H.H.H.H pbc="F F F"
C        1.38062946      -0.17365994       0.12713995
N        2.63494896       0.12652995       0.12977995
N        2.91453881       1.32459943      -0.45628982
C        2.63330906       2.60420896       0.22886990
C        3.93999840       3.13345888      -0.38301986
C        4.23208823       1.65694935      -0.68694970
O        5.21867771       1.01589958      -0.96807959
H        1.04693960      -1.12077962       0.57930979
H        0.60080974       0.46811981      -0.31752987
H        2.62593897       2.52011906       1.32026943
H        1.72056937       3.08841876      -0.12661995
H        3.83033852       3.75035859      -1.27896949
H        4.63093816       3.59867849       0.32271988
