16
Properties=species:S:1:pos:R:3 atomization_energy=-1597.51 smiles=N.C.C.C.O.C.C.H.H.H.H.H.H.H.H.H pbc="F F F"
N        0.96344963       0.08723997      -0.22566990
C        2.37229913      -0.01300000       0.14695995
C        3.14156881       1.25048949      -0.25066991
C        3.53997867       1.18829955      -1.71936929
O        4.36174814       0.04770998      -2.00998917
C        3.89979850      -1.12111951      -1.46610945
C        2.96946880      -1.21623956      -0.50854980
H        0.54445976       0.88553964       0.24824991
H        0.46627980      -0.73345972       0.11668995
H        2.43259898      -0.12924995       1.23552953
H        2.56008909       2.15666920      -0.04537998
H        4.05244831       1.31033944       0.35968985
H        4.11999840       2.07938922      -1.98221923
H        2.66166907       1.16793957      -2.37649918
H        4.39858851      -1.97486920      -1.90643923
H        2.66467889      -2.19719915      -0.15853993
