18
Properties=species:S:1:pos:R:3 atomization_energy=-1732.85 smiles=N.C.C.C.C.C.O.H.H.H.H.H.H.H.H.H.H.H pbc="F F F"
N        1.92293929      -0.28635989      -1.34739945
C        2.41333904       0.13725994      -0.03531998
C        3.15772886       1.47714945      -0.07439997
C        2.30336904       2.65450892      -0.51769981
C        3.01613873       3.80969858       0.13969995
C        3.42715859       3.20942876       1.46673940
O        3.64415868       1.80825928       1.24353953
H        1.45398947      -1.18661953      -1.24846945
H        2.71676889      -0.45147982      -1.96592922
H        3.07655869      -0.63497975       0.37243986
H        1.56911940       0.20517991       0.66097971
H        4.04074847       1.39132945      -0.72101972
H        1.28618944       2.57513889      -0.11674995
H        2.23875911       2.75013894      -1.60479942
H        3.90648856       4.07719848      -0.44272983
H        2.39733897       4.70461838       0.24904991
H        4.33653824       3.66314862       1.86896930
H        2.62917890       3.30765880       2.20942914
