13
Properties=species:S:1:pos:R:3 atomization_energy=-1338.4 smiles=C.O.C.C.N.N.C.H.H.H.H.H.H pbc="F F F"
C        3.07186886      -1.12492958       0.51535978
O        2.31620917       0.05952998       0.29512989
C        3.07040887       1.17300954       0.17965994
C        2.51473911       2.40845895      -0.03484999
N        3.56253860       3.27933865      -0.09672996
N        4.76357810       2.69204900       0.06333997
C        4.45957849       1.40068942       0.23262991
H        2.37106901      -1.96144921       0.59370978
H        3.63225848      -1.06681959       1.45487945
H        3.74360848      -1.32694952      -0.32614988
H        1.49288937       2.73601899      -0.14596994
H        3.53466861       4.28277856      -0.24464990
H        5.26414780       0.69478970       0.38537985
