12
Properties=species:S:1:pos:R:3 atomization_energy=-1224.15 smiles=N.C.C.C.C.N.H.H.H.H.H.H pbc="F F F"
N        0.96545963      -0.08645997       0.06114997
C        2.12623905      -0.04435998       0.05789998
C        3.57445847       0.02637999       0.02027999
C        4.22999843       1.09192958       0.92729964
C        5.27198773      -0.00114000       1.22058950
N        4.23430825      -1.00102964       0.88196966
H        3.97363845       0.03620998      -1.00310960
H        3.64206861       1.39072940       1.80408925
H        4.60687837       1.98722926       0.42595982
H        6.12750778      -0.00311000       0.53504982
H        5.63624758      -0.04622998       2.25003908
H        4.56982807      -1.82431928       0.38505986
