16
Properties=species:S:1:pos:R:3 atomization_energy=-1632.72 smiles=O.C.C.C.C.C.N.H.H.H.H.H.H.H.H.H pbc="F F F"
O        1.32876946       0.15925995       0.83920966
C        2.38849904       0.06043998       0.22688991
C        3.06254876      -1.27430956      -0.01272000
C        3.98867840      -1.28303946      -1.22080953
C        4.91763794      -0.07735997      -1.18392955
C        4.08479844       1.19305953      -1.18467948
N        3.06756888       1.18321949      -0.15926994
H        2.28661904      -2.03591923      -0.14613995
H        3.62654848      -1.52137946       0.89430966
H        4.57361808      -2.20916924      -1.23367956
H        3.39493866      -1.26148949      -2.14296912
H        5.54027793      -0.11835995      -0.28171990
H        5.59029756      -0.08686996      -2.04831916
H        4.71518803       2.07281914      -1.02292960
H        3.57287863       1.31429953      -2.14588910
H        2.55304905       2.03825922       0.01802999
