15
Properties=species:S:1:pos:R:3 atomization_energy=-1490.19 smiles=C.N.C.N.C.C.O.H.H.H.H.H.H.H.H pbc="F F F"
C        0.98099965      -0.50101980      -0.27559989
N        2.39273896      -0.30014989       0.01660000
C        3.25565862      -1.37984951      -0.03007999
N        2.93078894      -2.59279904      -0.31574986
C        2.79134892       1.01178961       0.31104988
C        4.24828840       1.24148946       0.63317974
O        2.01447915       1.96904918       0.31144989
H        0.38563984       0.40913983      -0.16994993
H        0.58028979      -1.25848952       0.40617983
H        0.88323964      -0.86779968      -1.30271954
H        4.30767810      -1.16485949       0.19873992
H        1.93696929      -2.69615897      -0.51642979
H        4.87156831       0.98992958      -0.22885991
H        4.54037798       0.65935974       1.51107942
H        4.40349837       2.29997922       0.86528968
