15
Properties=species:S:1:pos:R:3 atomization_energy=-1423.76 smiles=C.O.N.C.C.C.N.H.H.H.H.H.H.H.H pbc="F F F"
C        2.17370913       0.10970995      -1.21996952
O        2.36049910       0.57055977       0.12026996
N        2.88615886       1.87453926       0.05363998
C        2.02892915       2.95437889       0.13390994
C        0.69378971       2.96270885       0.22780991
C        4.26156809       1.91482924       0.14463993
N        5.08790804       0.92752964       0.25855990
H        1.67696931      -0.86364965      -1.17436948
H        3.13718884      -0.01857000      -1.72281929
H        1.53726939       0.79267972      -1.79224924
H        2.55824909       3.90490846       0.12177995
H        0.12345995       2.04014919       0.26059990
H        0.14640995       3.89699838       0.28911989
H        4.66747824       2.94131872       0.10792996
H        4.51841810       0.07346997       0.30759987
