15
Properties=species:S:1:pos:R:3 atomization_energy=-1520.69 smiles=C.C.C.N.C.N.C.H.H.H.H.H.H.H.H pbc="F F F"
C        1.26543949       0.12292995       0.58553979
C        2.58712891      -0.14745994      -0.05228998
C        3.33846869       0.97063962      -0.71479970
N        3.80593859       0.41701982       0.56262975
C        4.66194815      -0.65706977       0.50073981
N        4.31797826      -1.77734934      -0.06234998
C        2.89820894      -1.57024934      -0.46118981
H        1.16102948       1.17160948       0.88312963
H        1.13588959      -0.49378981       1.48068940
H        0.45506984      -0.11114996      -0.11195995
H        2.97846895       1.98558924      -0.62009977
H        3.98658834       0.76759969      -1.55741943
H        5.64164798      -0.49012981       0.97405959
H        2.78727882      -1.70772938      -1.54139942
H        2.26835908      -2.29476909       0.06487997
