16
Properties=species:S:1:pos:R:3 atomization_energy=-1515.64 smiles=N.C.C.O.C.O.C.H.H.H.H.H.H.H.H.H pbc="F F F"
N        0.92088961      -0.10346996       0.15420995
C        2.38453896      -0.03471999      -0.10807996
C        2.72159901      -0.00486000      -1.58172940
O        1.94936923       1.01181957      -2.22031925
C        3.01222886       1.03020960       0.81516969
O        3.30947861       0.01067000       1.81655934
C        3.12479887      -1.02572959       0.81129968
H        0.69806976       0.00151000       1.14909951
H        0.50012979      -0.99475958      -0.11404996
H        2.47992900      -0.95928963      -2.06181914
H        3.78119852       0.20388992      -1.75771935
H        1.07900958       0.99319961      -1.77236932
H        2.34814901       1.80724932       1.20576958
H        3.93606834       1.49394941       0.45319980
H        4.09200830      -1.38452950       0.44382983
H        2.54819899      -1.87224922       1.19563949
