11
Properties=species:S:1:pos:R:3 atomization_energy=-1179.37 smiles=N.C.N.C.C.C.O.H.H.H.H pbc="F F F"
N        1.00897958       0.01826999       0.00000000
C        2.35123905      -0.02633999      -0.00000000
N        3.11385880      -1.05112956       0.00000000
C        3.09027870       1.19947947      -0.00000000
C        3.71575843       2.22526923       0.00000000
C        4.47866836       3.44332874       0.00000000
O        3.92020856       4.53121836      -0.00000000
H        0.52300980       0.90626966      -0.00000000
H        0.45154981      -0.82231968       0.00000000
H        2.54071888      -1.89628921      -0.00000000
H        5.57345798       3.32367880       0.00000000
