17
Properties=species:S:1:pos:R:3 atomization_energy=-1598.25 smiles=C.N.N.C.C.C.O.H.H.H.H.H.H.H.H.H.H pbc="F F F"
C        2.75414899      -0.71982973       0.61158978
N        2.97948888       0.23275991      -0.47209983
N        3.32590866       1.51281937       0.03160999
C        2.25702916       2.43905916       0.37229985
C        4.62744842       2.00497925      -0.10468996
C        5.66539790       1.02991961      -0.60568977
O        4.93187800       3.17062879       0.15559995
H        2.53461903      -1.70498931       0.18921993
H        1.90716922      -0.42517984       1.23920953
H        3.64334844      -0.82005968       1.24235951
H        2.13484910       0.31518988      -1.04183961
H        1.37724949       1.89652930       0.72892974
H        1.99978918       3.01779881      -0.51981980
H        2.59500896       3.12580870       1.15388951
H        5.66963757       0.12158996       0.00210000
H        6.65601761       1.48853943      -0.52982978
H        5.47443765       0.78721971      -1.65444937
