15
Properties=species:S:1:pos:R:3 atomization_energy=-1432.72 smiles=N.N.C.O.C.C.C.H.H.H.H.H.H.H.H pbc="F F F"
N        4.99469789      -0.50377980      -2.75499884
N        5.17434815       0.57448977      -1.95345927
C        4.11700827       1.30973952      -1.85229929
O        4.05867837       2.45036915      -1.12003953
C        5.25217771       2.86319899      -0.42672985
C        6.14005772       3.83262842      -1.15565950
C        5.28772816       4.30911841      -0.01663999
H        5.65413787      -1.23548953      -2.47307896
H        5.29431804      -0.27500991      -3.70811859
H        3.14599874       1.11536951      -2.33691900
H        5.72147751       2.15025922       0.24623990
H        5.85908788       4.12074833      -2.16177916
H        7.20839698       3.74619841      -0.99856960
H        5.77862751       4.55790845       0.91656963
H        4.42737849       4.92593812      -0.24769991
