13
Properties=species:S:1:pos:R:3 atomization_energy=-1287.92 smiles=C.N.N.C.C.C.O.H.H.H.H.H.H pbc="F F F"
C        1.45354941      -0.27837988      -0.06942997
N        2.74070881      -0.19904992      -0.03051999
N        3.15034868       1.13056957      -0.03135999
C        4.43902813       1.20871959      -0.00086000
C        5.04149776       2.55001906      -0.00173000
C        5.18513784       3.31707858       1.28452948
O        6.29576730       2.63310896       0.69260975
H        0.96551963      -1.26546951      -0.07433998
H        0.79516966       0.60627978      -0.09922996
H        5.10712812       0.33042986       0.02061999
H        4.94453796       3.11096885      -0.92274960
H        4.75862837       2.89965884       2.18875917
H        5.17791813       4.39842803       1.23854955
