14
Properties=species:S:1:pos:R:3 atomization_energy=-1436.75 smiles=C.O.N.C.C.C.C.H.H.H.H.H.H.H pbc="F F F"
C        2.87491876      -0.93422961       0.78253966
O        2.82681888      -0.19067992      -0.43047984
N        3.38062871       1.06715961      -0.20090992
C        2.67019888       2.17339926       0.16147994
C        3.55854849       3.22502863       0.24940991
C        4.84030800       2.72616898      -0.10399996
C        4.69243835       1.38591946      -0.39629984
H        2.43594893      -1.91795928       0.59427979
H        2.28979917      -0.44282981       1.56696941
H        3.90896847      -1.07843957       1.11290953
H        1.60359933       2.11877914       0.32461987
H        3.31027875       4.24325843       0.52184980
H        5.76470792       3.28709859      -0.15477994
H        5.40074783       0.63860972      -0.72333972
