10
Properties=species:S:1:pos:R:3 atomization_energy=-1150.39 smiles=N.C.O.C.C.C.C.H.H.H pbc="F F F"
N        0.99938961      -0.01964999       0.00000000
C        2.35698918      -0.09792996       0.00000000
O        2.96004877      -1.16030958       0.00000000
C        3.06600872       1.15364955       0.00000000
C        3.66144866       2.19601924       0.00000000
C        4.42444843       3.52456855       0.00000000
C        5.02540812       4.56336839       0.00000000
H        0.50827981       0.86204968       0.00000000
H        0.47550980      -0.88333962      -0.00000000
H        5.56324765       5.48237800       0.00000000
