18
Properties=species:S:1:pos:R:3 atomization_energy=-1714.33 smiles=C.N.C.C.O.C.C.H.H.H.H.H.H.H.H.H.H.H pbc="F F F"
C        1.45145948      -0.25413991      -0.10108996
N        2.89000893      -0.06933997      -0.24412991
C        3.33311877       1.11313953       0.50706978
C        4.82712823       1.21852946       0.32804987
O        5.54708785       0.01772999       0.65940977
C        5.40669780       2.01192921      -0.81293971
C        5.54473764       2.51010908       0.60047976
H        1.13562956      -1.11974960      -0.69118975
H        0.89558968       0.61805974      -0.46007981
H        1.18059954      -0.44837984       0.94141966
H        3.10699867       0.08152997      -1.23018957
H        3.11376872       0.99047960       1.57389943
H        2.82855895       2.01866923       0.14960995
H        4.96588822      -0.74652972       0.47427981
H        4.73114799       2.53919909      -1.47430946
H        6.29238758       1.62091934      -1.29993948
H        6.52216749       2.45426893       1.06552954
H        4.96261801       3.37502872       0.89257962
