17
Properties=species:S:1:pos:R:3 atomization_energy=-1614.85 smiles=C.N.C.C.O.C.N.H.H.H.H.H.H.H.H.H.H pbc="F F F"
C        0.94855963      -0.74168969      -0.72628972
N        2.12739928      -0.48225982       0.08625997
C        2.84258882      -1.65305941       0.56392976
C        2.79531885       0.74001970       0.09347996
O        3.91181855       0.87931967       0.60375975
C        2.11618921       1.94690925      -0.56899979
N        2.16864913       1.83270930      -2.03497917
H        0.29581989       0.13029995      -0.78717972
H        0.37540986      -1.56165935      -0.28276988
H        1.27129950      -1.02502962      -1.73246932
H        2.14138928      -2.32266910       1.07006961
H        3.63642851      -1.38519943       1.26617945
H        3.28693861      -2.16560904      -0.29464989
H        2.65277894       2.85020897      -0.25787990
H        1.08689961       2.04770915      -0.21434991
H        3.14756874       1.71881933      -2.30576922
H        1.87194920       2.71913904      -2.44036902
