16
Properties=species:S:1:pos:R:3 atomization_energy=-1546.18 smiles=C.N.C.O.C.O.C.H.H.H.H.H.H.H.H.H pbc="F F F"
C        1.32399952       2.85540876       2.42299903
N        2.09766923       1.79438926       1.83841930
C        2.37813908       1.75018928       0.49128981
O        2.06784923       2.63576904      -0.30110988
C        3.12771885       0.48789980       0.05851998
O        3.31502863      -0.42754983       1.14105961
C        4.00614830      -1.59498941       0.71364970
H        1.38508942       2.77552902       3.51067872
H        0.28457989       2.75652897       2.09904923
H        1.71472930       3.82269843       2.09490923
H        2.30204910       0.94874963       2.36392904
H        4.10284845       0.79686968      -0.33339987
H        2.53886904       0.00462000      -0.72873973
H        4.98800808      -1.33391941       0.30754988
H        3.41829873      -2.13298917      -0.03581999
H        4.14858829      -2.24644916       1.57965940
