17
Properties=species:S:1:pos:R:3 atomization_energy=-1641.27 smiles=N.C.C.C.C.C.H.H.H.H.H.H.H.H.H.H.H pbc="F F F"
N        1.01136961       0.01845999      -0.05070998
C        2.46047906       0.00456000       0.04182999
C        3.00593874       1.12564961       0.91860967
C        4.42912816       0.66060973       1.18854949
C        4.30483836      -0.84825965       1.38549946
C        2.99894892      -1.26460944       0.70206971
H        0.69639970      -0.74400969      -0.64839973
H        0.70144973       0.88274968      -0.49235982
H        2.88463881       0.09441996      -0.96716962
H        2.45012893       1.20303948       1.86092927
H        2.97689895       2.10029915       0.42182983
H        5.06445789       0.87057967       0.31982987
H        4.87379791       1.15751955       2.05532918
H        5.16901791      -1.37498948       0.96938963
H        4.25605819      -1.09061960       2.45414908
H        3.16080882      -2.06015918      -0.03203999
H        2.30437912      -1.65423931       1.45572942
