13
Properties=species:S:1:pos:R:3 atomization_energy=-1340.19 smiles=N.C.C.C.O.C.N.H.H.H.H.H.H pbc="F F F"
N        1.06076957      -0.30144987      -0.11359996
C        2.40697903      -0.03975998      -0.07519997
C        3.05351883       1.13798949       0.00000000
C        2.36000908       2.46915900       0.01633999
O        2.36015896       3.01007874       1.33133945
C        4.45951843       1.13798949       0.00000000
N        5.61052796       1.13798949       0.00000000
H        0.79358969      -1.22997950       0.21218991
H        0.43757984       0.43142983       0.21493991
H        2.98497884      -0.96567961      -0.12638995
H        1.32178947       2.40518899      -0.32327987
H        2.86481896       3.17990878      -0.64713972
H        2.00117927       2.33389910       1.93058922
