16
Properties=species:S:1:pos:R:3 atomization_energy=-1654.63 smiles=C.C.C.C.C.C.N.H.H.H.H.H.H.H.H.H pbc="F F F"
C        1.04398960      -0.03114999      -0.01936999
C        2.53477901      -0.03927998      -0.05153998
C        3.26187884      -0.63724972      -1.22735954
C        3.28049862       0.85924969      -1.01277963
C        4.52577810       1.56023936      -0.55534981
C        5.26840816       1.87155922      -1.78226929
N        5.86397755       2.12845907      -2.74604890
H        0.68712974       0.76640970       0.63959975
H        0.67082971      -0.98503960       0.36608985
H        0.61092974       0.12798995      -1.01238959
H        2.95264890      -0.20995992       0.93482965
H        2.68178896      -1.01941960      -2.06103918
H        4.16334840      -1.20732949      -1.02948957
H        2.68238901       1.47416942      -1.68045930
H        5.12534795       0.93251962       0.11217996
H        4.26201825       2.47661892      -0.01803999
