16
Properties=species:S:1:pos:R:3 atomization_energy=-1553.14 smiles=C.O.C.C.C.N.O.H.H.H.H.H.H.H.H.H pbc="F F F"
C        2.83672893      -0.88512967      -0.37316986
O        2.76097884       0.03843998       0.70760971
C        3.01284883       1.38492944       0.28709989
C        2.46599906       2.30951911       1.36651948
C        4.51377823       1.65774936       0.10380996
N        5.32383777       1.07447961       1.03769961
O        4.97178823       2.37628899      -0.77893971
H        2.64143892      -1.88618926       0.02025999
H        3.83287848      -0.87788965      -0.82450967
H        2.07817916      -0.65446975      -1.12697952
H        2.49831890       1.58429940      -0.66078977
H        2.92127883       2.09722916       2.34028914
H        1.38710946       2.16211905       1.48356939
H        2.65253898       3.36007859       1.12288961
H        4.95192824       0.34130985       1.63014937
H        6.32395775       1.16523950       0.92708964
