16
Properties=species:S:1:pos:R:3 atomization_energy=-1589.34 smiles=N.C.C.C.C.O.C.H.H.H.H.H.H.H.H.H pbc="F F F"
N        2.40780895      -0.46730982       1.46495945
C        2.49723893       0.01993999       0.09756996
C        3.04821886       1.39706948       0.04771998
C        4.17463846       1.81058931      -0.53681980
C        4.33099805       3.27190876      -0.35628987
O        3.11884865       3.71775866       0.27152988
C        2.35571920       2.56022889       0.65895973
H        2.15542924      -1.45430943       1.44872938
H        1.64618931       0.00529000       1.94766927
H        1.50747942      -0.00515000      -0.37097984
H        3.13729886      -0.66135972      -0.47443982
H        4.88462796       1.18446954      -1.05491958
H        5.17969808       3.51229869       0.29095989
H        4.44179822       3.79149843      -1.31227949
H        1.33542949       2.67862902       0.28151989
H        2.33776910       2.50416895       1.75186930
