14
Properties=species:S:1:pos:R:3 atomization_energy=-1375.66 smiles=C.N.O.C.O.C.C.H.H.H.H.H.H.H pbc="F F F"
C        2.39899905      -0.40904985      -1.71018935
N        2.57795894       0.35252985      -0.49081981
O        1.74476933      -0.14874994       0.53659977
C        3.84568858       0.78013967      -0.13365994
O        4.77594788       0.87455964      -0.93254965
C        4.01136853       1.19572957       1.29008948
C        5.17151801       1.70764938       1.72410933
H        2.95247883       0.05771998      -2.53005890
H        1.33448943      -0.44463982      -1.95830920
H        2.77718885      -1.42435948      -1.55623940
H        1.04305957       0.52872981       0.55655980
H        3.17917879       1.07460956       1.96984919
H        6.02088773       1.83529922       1.05799960
H        5.29406773       2.00882920       2.75867884
