20
Properties=species:S:1:pos:R:3 atomization_energy=-1915.19 smiles=C.C.C.C.C.C.N.H.H.H.H.H.H.H.H.H.H.H.H.H pbc="F F F"
C        0.94118966       0.01741999      -0.02770999
C        2.45662899      -0.04623998       0.03016999
C        3.14840875       1.00021959       0.94547960
C        4.20938826      -0.07584997       1.27129950
C        3.13645885      -1.14186959       0.91927961
C        2.39630895      -1.77301933       2.08031918
N        3.74601850      -2.14392925       0.04232998
H        0.54281979      -0.83985967      -0.57893975
H        0.61634975       0.92763966      -0.54161977
H        0.49277979       0.01935999       0.96994962
H        2.85941881       0.00675000      -0.99417960
H        2.55567910       1.30859949       1.81439926
H        3.52402856       1.89467921       0.44144981
H        5.07997778      -0.02840999       0.60449977
H        4.56829844      -0.07286997       2.30528902
H        1.97095920      -1.01454961       2.74659898
H        3.06539884      -2.39731903       2.68325905
H        1.57260939      -2.40468912       1.73002927
H        4.28699854      -1.76628928      -0.73528968
H        3.07429881      -2.78918897      -0.37228985
