13
Properties=species:S:1:pos:R:3 atomization_energy=-1299.9 smiles=C.N.N.C.O.C.C.H.H.H.H.H.H pbc="F F F"
C        1.34420948      -0.04078998       0.04845998
N        2.26847920       0.77126973       0.83769965
N        3.08244886       1.55485940      -0.01192999
C        4.36924844       1.14836952      -0.31894986
O        4.87163795       0.08915996       0.03680999
C        5.13628802       2.08092919      -1.11519956
C        5.77527756       2.85523895      -1.77498928
H        0.72406971      -0.64361976       0.71889970
H        1.88076932      -0.72108974      -0.62143978
H        0.67706974       0.59155978      -0.54628979
H        2.89002886       0.13041995       1.35009952
H        2.77322902       2.48861904      -0.26863990
H        6.35414768       3.53277865      -2.35842898
