16
Properties=species:S:1:pos:R:3 atomization_energy=-1568.34 smiles=N.C.C.C.O.C.C.H.H.H.H.H.H.H.H.H pbc="F F F"
N        0.38975985       1.08046957      -0.77496973
C        1.05017960      -0.17857992      -0.42136983
C        1.67375940      -0.99512963      -1.51259947
C        2.55222897      -0.29068990      -0.51451980
O        3.16541865      -1.11320955       0.50003981
C        4.39952819      -1.57392934       0.11947995
C        5.15366810      -2.31290918       0.93317966
H        0.37653987       1.70991936       0.02834999
H       -0.58786976       0.91429966      -1.01466959
H        0.57504975      -0.72889971       0.38832986
H        1.65723940      -0.60781976      -2.52389899
H        1.59185937      -2.07308914      -1.44717943
H        3.08323891       0.60018976      -0.83842965
H        4.70966803      -1.30082945      -0.88046968
H        4.81093816      -2.56937892       1.92953927
H        6.12725747      -2.67254884       0.61768976
