15
Properties=species:S:1:pos:R:3 atomization_energy=-1446.75 smiles=N.C.C.N.O.C.C.H.H.H.H.H.H.H.H pbc="F F F"
N        2.39956907      -0.33752987       1.42636942
C        2.52655906       0.07319997       0.02719999
C        3.01293892       1.49487938      -0.06331998
N        4.01293854       1.85115926      -0.80633967
O        4.15993840       3.25097863      -0.64572975
C        2.93324892       3.74849841      -0.10332996
C        2.36241909       2.60105886       0.68358973
H        2.23186921      -1.34309948       1.46015948
H        1.57846940       0.09604996       1.84516929
H        1.55910942      -0.00392000      -0.47837982
H        3.23877867      -0.58158980      -0.48500982
H        2.28064913       4.03913834      -0.93414962
H        3.12865879       4.62630838       0.51878978
H        1.27262954       2.55872903       0.65220975
H        2.71751882       2.59372889       1.71776938
