6
Properties=species:S:1:pos:R:3 atomization_energy=-693.01 smiles=C.C.C.C.H.H pbc="F F F"
C        0.90814965       0.00000000       0.00000000
C        2.10818917       0.00000000       0.00000000
C        3.64020868       0.00000000       0.00000000
C        4.84018789       0.00000000       0.00000000
H       -0.15689994       0.00000000       0.00000000
H        5.90536745       0.00000000       0.00000000
