17
Properties=species:S:1:pos:R:3 atomization_energy=-1619.65 smiles=C.N.C.C.O.N.C.H.H.H.H.H.H.H.H.H.H pbc="F F F"
C        1.04221956       0.14731995      -0.50062982
N        2.48896902       0.20203992      -0.68782971
C        3.01994893       1.47440938      -0.14246995
C        4.54314808       1.55577940      -0.30877987
O        5.16998787       2.58968906      -0.09635996
N        5.13722821       0.37555984      -0.69756969
C        6.56468732       0.24052990      -0.78331968
H        0.65764976      -0.79394970      -0.90651966
H        0.53997980       0.96899959      -1.02292960
H        0.77819969       0.18205993       0.56087977
H        2.68428906       0.19141993      -1.69194933
H        2.80232887       1.55172936       0.92761966
H        2.58121906       2.32581920      -0.67456977
H        4.54389801      -0.44800983      -0.62263974
H        6.97929736       1.06380953      -1.37373943
H        6.80017749      -0.71482972      -1.25821953
H        6.98707723       0.27138990       0.22549991
