13
Properties=species:S:1:pos:R:3 atomization_energy=-1322.1 smiles=O.C.C.N.C.N.C.H.H.H.H.H.H pbc="F F F"
O        1.36758949       0.12647994       1.16977957
C        2.60045907       0.05468998       0.42598982
C        2.65539890       0.83348970      -0.85770965
N        3.95120847       1.17262953      -1.46734941
C        4.46091837      -0.04706998      -1.84059932
N        3.77707846      -1.12196961      -1.56800939
C        2.56427905      -0.69252976      -0.88483967
H        0.60908974       0.38203984       0.61884973
H        3.51125858      -0.03115999       1.01015961
H        1.80472929       1.40160942      -1.20532951
H        4.04874838       1.92843923      -2.13499924
H        5.40834805      -0.02689999      -2.40027913
H        1.65493940      -1.22903957      -1.11640962
