15
Properties=species:S:1:pos:R:3 atomization_energy=-1414.84 smiles=C.O.N.C.C.C.N.H.H.H.H.H.H.H.H pbc="F F F"
C        5.28994817      -0.87919963      -0.98125961
O        5.87211776       0.35443988      -0.57769980
N        4.85252790       1.31251945      -0.47343980
C        5.37465779       2.42689907      -0.08281997
C        4.47089807       3.57840847       0.08731996
C        3.73345846       3.76391862       1.38623942
N        4.91460795       4.56310798       1.08199958
H        6.08312776      -1.62765937      -1.05685957
H        4.81255812      -0.77058970      -1.95994923
H        4.55850798      -1.21394953      -0.23917991
H        6.45199770       2.55876890       0.11854996
H        4.02694847       3.97475855      -0.81820965
H        3.84771859       3.00995888       2.15584912
H        2.77775887       4.27195808       1.36925942
H        4.64905806       5.50696769       0.79449966
