17
Properties=species:S:1:pos:R:3 atomization_energy=-1566.13 smiles=C.N.N.C.C.O.C.H.H.H.H.H.H.H.H.H.H pbc="F F F"
C        3.54720872      -1.80418930      -0.58513979
N        4.39568821      -0.65522977      -0.28733988
N        3.77299851       0.54667977      -0.31746988
C        4.58723842       1.54803939      -0.19715993
C        4.06912842       2.96761871      -0.19566993
O        4.35029836       3.63194862       1.02999960
C        3.52551858       3.17262877       2.09542916
H        4.14275843      -2.72158892      -0.55836977
H        3.11187876      -1.71438928      -1.58553935
H        2.73832882      -1.89519926       0.14678994
H        4.85266819      -0.81511967       0.61438977
H        5.67972779       1.42205948      -0.08747996
H        2.99727873       2.99702892      -0.41927983
H        4.59875835       3.50559854      -0.98800960
H        3.72064860       3.79767852       2.97075872
H        3.76889863       2.13760911       2.35159913
H        2.46657891       3.25987861       1.83499933
