18
Properties=species:S:1:pos:R:3 atomization_energy=-1722.83 smiles=N.C.C.C.C.C.O.H.H.H.H.H.H.H.H.H.H.H pbc="F F F"
N        1.95834920      -0.51704980       1.58047935
C        2.10393915      -0.05313998       0.19727993
C        3.40177860       0.73558971      -0.02972999
C        4.66252801      -0.09683997       0.08902997
C        5.25647794      -0.62166978      -0.99791959
C        5.25913802      -0.25610990       1.46277944
O        4.56539814      -1.25113949       2.19442906
H        1.10583959      -1.07845963       1.64678936
H        1.79973932       0.28860990       2.18900923
H        1.24692947       0.58438979      -0.04863998
H        2.06876923      -0.91746964      -0.47531983
H        3.45403868       1.58770940       0.65945973
H        3.35428860       1.17855957      -1.03389957
H        4.83965799      -0.49928981      -1.99234919
H        6.16371782      -1.21249951      -0.91282964
H        5.21702797       0.68699973       2.01695918
H        6.31149764      -0.55135976       1.41254949
H        3.60820854      -1.12726958       2.00620924
