11
Properties=species:S:1:pos:R:3 atomization_energy=-1207.75 smiles=N.C.C.C.O.C.N.H.H.H.H pbc="F F F"
N        0.93972961       0.12798995       0.13419995
C        2.31325916      -0.03267999       0.06691998
C        3.00096883      -1.18217951       0.01192999
C        2.36540897      -2.50837910       0.08049997
O        3.02392870      -3.53160859      -0.05883998
C        3.05336869       1.20185958       0.04879998
N        3.63064861       2.20748921       0.01601999
H        0.62117975       1.06368954      -0.12420995
H        0.39766983      -0.59169977      -0.33609987
H        4.08475832      -1.20304958      -0.05792998
H        1.27982943      -2.53468893       0.26292990
