12
Properties=species:S:1:pos:R:3 atomization_energy=-1301.04 smiles=N.C.C.C.O.O.C.H.H.H.H.H pbc="F F F"
N        1.01413957       0.03575999       0.20180992
C        2.38075904      -0.02035999       0.10168996
C        3.14518876      -1.10047957      -0.03456999
C        4.53052798      -0.64320972      -0.09717996
O        5.49508793      -1.37438944      -0.22728990
O        4.56799816       0.71220970       0.00017000
C        3.23590866       1.20015950       0.14085995
H        0.52677979      -0.80052968      -0.11516996
H        0.59073977       0.89566967      -0.14176995
H        2.86235898      -2.13482917      -0.08990997
H        3.01521873       1.88151925      -0.68650970
H        3.14693867       1.73295934       1.09254956
