18
Properties=species:S:1:pos:R:3 atomization_energy=-1658.1 smiles=C.O.C.C.O.C.N.H.H.H.H.H.H.H.H.H.H.H pbc="F F F"
C        1.56612940       0.09302996       0.79312969
O        2.81112892       0.22071991       0.11670996
C        3.35701857       1.54154943       0.27484990
C        4.70536831       1.57485943      -0.45255983
O        4.49714809       1.29757955      -1.84973926
C        5.43259809       2.92035883      -0.30902987
N        4.67470804       4.02978846      -0.89953967
H        1.18934950      -0.92023967       0.63086977
H        0.83765966       0.80553966       0.39479985
H        1.69858930       0.24869990       1.86802924
H        3.48898858       1.76020936       1.34009951
H        2.65508903       2.25625904      -0.16899993
H        5.34752814       0.77222972      -0.07137997
H        3.87761858       0.54107978      -1.85954927
H        6.39540737       2.85810896      -0.82882970
H        5.62976772       3.13782876       0.74544968
H        4.40625837       3.73390862      -1.84378929
H        5.29744796       4.82637830      -1.02737958
