9
Properties=species:S:1:pos:R:3 atomization_energy=-803.46 smiles=C.O.N.C.H.H.H.H.H pbc="F F F"
C        0.95533964      -0.34596987       0.03008999
O        2.32962915      -0.06666997      -0.21066991
N        2.48444901       1.32227950      -0.33191988
C        3.72857862       1.57883933      -0.55011980
H        0.83402968      -1.42818949       0.12461995
H        0.34483987       0.00586000      -0.80719968
H        0.62969978       0.12837994       0.96093963
H        4.06107829       2.62059889      -0.67587974
H        4.50103803       0.79422966      -0.62012974
