18
Properties=species:S:1:pos:R:3 atomization_energy=-1720.36 smiles=C.N.C.C.C.C.O.H.H.H.H.H.H.H.H.H.H.H pbc="F F F"
C        1.14216961      -1.09941952       0.74654972
N        2.21923902      -0.38891984       0.05316998
C        3.11618883      -1.36203946      -0.58013978
C        1.70010935       0.54357982      -0.96756963
C        0.96387960       1.73675933      -0.36044987
C        0.55156976       2.73058882      -1.41604945
O        0.65458974       2.55258905      -2.62512899
H        0.52818978      -0.41009983       1.33470946
H        1.55463937      -1.81960927       1.46305940
H        0.49022980      -1.64265932       0.05263998
H        3.54240862      -2.03874925       0.16938994
H        3.96258836      -0.85440966      -1.05662957
H        2.60273888      -1.96516920      -1.33809953
H        1.05088960       0.01824999      -1.68138939
H        2.54544908       0.93704966      -1.54873936
H        1.60934933       2.26233922       0.35223986
H        0.05234998       1.42921938       0.16027993
H        0.10180996       3.66151856      -1.02697957
