15
Properties=species:S:1:pos:R:3 atomization_energy=-1504.21 smiles=C.C.C.N.N.C.C.H.H.H.H.H.H.H.H pbc="F F F"
C        0.87166968      -1.10586962       0.93238961
C        1.12400958      -0.36095986      -0.35607987
C        0.90168966       1.10658952      -0.51914980
N       -0.32135988       1.53782944       0.15868994
N       -1.48411947       0.83429968       0.04653998
C       -1.40871948      -0.45078982      -0.13000995
C       -0.12261995      -1.18607954      -0.20330992
H        1.47539940      -1.98316925       1.13640952
H        0.60120975      -0.54652976       1.82066931
H        1.90996921      -0.72693973      -1.00469961
H        1.75846928       1.66686937      -0.13117995
H        0.81683968       1.34245944      -1.58589943
H       -0.12508995       1.73291935       1.14131951
H       -2.33651906      -1.03682958      -0.22687991
H       -0.16769994      -2.11633922      -0.75891969
