16
Properties=species:S:1:pos:R:3 atomization_energy=-1547.66 smiles=C.O.N.C.C.C.C.H.H.H.H.H.H.H.H.H pbc="F F F"
C        1.54741942      -0.14111994      -0.46519983
O        2.96231874      -0.13023995      -0.31486989
N        3.38072863       1.20098954      -0.16737993
C        4.66502811       1.21713950      -0.05446998
C        5.32500808       2.52860900       0.10004996
C        5.34432808       3.20402862       1.44905943
C        6.61217758       2.63833903       0.87983966
H        1.22321955      -1.17526954      -0.60697975
H        1.25440946       0.44333983      -1.34288941
H        1.06845961       0.25964990       0.43308982
H        5.29164787       0.30892988      -0.07704997
H        5.22201807       3.17594869      -0.76562968
H        4.88342788       2.69169902       2.28630918
H        5.22868769       4.28150832       1.47330947
H        7.36251687       3.33390856       0.52106979
H        7.02065747       1.74856931       1.34549953
