14
Properties=species:S:1:pos:R:3 atomization_energy=-1416.48 smiles=C.O.C.C.C.N.O.H.H.H.H.H.H.H pbc="F F F"
C        3.20684867      -0.53783979       1.10945953
O        2.78640878       0.21067992      -0.02668999
C        3.30154860       1.47059944      -0.16059993
C        4.16776824       2.10631914       0.64421974
C        4.59376825       3.48511857       0.32831987
N        5.44216801       4.00848842       1.25456956
O        4.23242838       4.11406836      -0.65322973
H        2.68578892      -1.50068943       1.09871956
H        2.94063894      -0.02196999       2.03876918
H        4.28320853      -0.73297972       1.06877957
H        2.89323877       1.92923925      -1.05814961
H        4.57254820       1.65005932       1.53132939
H        5.74932782       3.51712856       2.08317923
H        5.76710758       4.95555828       1.10731951
