17
Properties=species:S:1:pos:R:3 atomization_energy=-1556.97 smiles=C.N.C.C.O.N.C.H.H.H.H.H.H.H.H.H.H pbc="F F F"
C        0.93910963      -0.17595994       0.03970999
N        2.39152904      -0.09486996       0.11517995
C        2.85345900       1.27324952      -0.14541994
C        4.37852817       1.38894946      -0.06617998
O        4.74488792       2.74231894      -0.35253986
N        6.14358733       2.84464886      -0.30613989
C        6.47379761       4.07105850      -0.52729978
H        0.61988977      -1.20215947       0.24745991
H        0.57279977       0.09561996      -0.95588960
H        0.46657983       0.47255983       0.78472971
H        2.79926884      -0.72767969      -0.57312976
H        2.41209908       1.96798925       0.58048976
H        2.52312912       1.60688935      -1.13760961
H        4.85024834       0.72546971      -0.80078971
H        4.73156837       1.12306952       0.93694961
H        7.53542686       4.36187835      -0.53169981
H        5.73473752       4.86771824      -0.71681974
