13
Properties=species:S:1:pos:R:3 atomization_energy=-1266.16 smiles=C.N.O.C.N.C.C.H.H.H.H.H.H pbc="F F F"
C        0.84003965      -0.01239999       0.08115997
N        2.28803916      -0.00410000       0.18158992
O        2.83412891      -1.21194955      -0.28628990
C        3.03075880       1.11867959      -0.11844995
N        2.68154900       2.35389913      -0.17120993
C        4.44504824       0.99962958      -0.38904985
C        5.62148772       0.90215963      -0.61243975
H        0.40221984       0.77420970       0.70342971
H        0.43725982      -0.96875962       0.43163984
H        0.52305980       0.13800995      -0.95607960
H        3.59672847      -1.35761950       0.30666988
H        1.69023928       2.44304902       0.04653998
H        6.66433748       0.83437967      -0.81693966
