13
Properties=species:S:1:pos:R:3 atomization_energy=-1312.45 smiles=N.C.C.N.O.C.C.H.H.H.H.H.H pbc="F F F"
N        1.02414961       0.05746998      -0.00662000
C        2.35801919       0.00500000      -0.00086000
C        3.19185868       1.09542954       0.00174000
N        4.46669827       0.61118977       0.00764000
O        5.62327776       1.37447952       0.01005999
C        4.46618805      -0.75048968       0.00918999
C        3.14933885      -1.16291957       0.00350000
H        0.50493979       0.92896964      -0.00285000
H        0.44416982      -0.77628967      -0.00239000
H        2.98266875       2.15445903      -0.00089000
H        5.24888782       2.26840905       0.02905999
H        5.39338783      -1.30477944       0.01346999
H        2.80993892      -2.19000922       0.00231000
