16
Properties=species:S:1:pos:R:3 atomization_energy=-1558.76 smiles=C.O.N.C.C.C.C.H.H.H.H.H.H.H.H.H pbc="F F F"
C        3.04568874      -1.24983949       0.07334997
O        3.93097857      -0.35035987       0.72956972
N        4.01199835       0.82471967      -0.03312999
C        4.81855806       1.64762937       0.55419981
C        5.13373796       2.99630877       0.01575000
C        4.47798807       3.41063871      -1.26192956
C        5.98775764       3.76354845       0.70868975
H        2.96802874      -2.15916904       0.67502976
H        3.43684861      -1.51235938      -0.91434962
H        2.05109922      -0.80309967      -0.02060999
H        5.31693802       1.37415944       1.50227937
H        4.75033828       2.72804885      -2.07360919
H        4.77859787       4.41990848      -1.56311934
H        3.38835862       3.40851863      -1.15379956
H        6.44760764       3.43284866       1.63497937
H        6.25274735       4.75772805       0.36110984
