14
Properties=species:S:1:pos:R:3 atomization_energy=-1399.77 smiles=N.C.C.C.O.C.O.H.H.H.H.H.H.H pbc="F F F"
N        0.77105973       0.64905977      -0.68839973
C        1.34879952      -0.63792975      -0.30244989
C        2.30180912      -1.31713951      -1.24007956
C        2.81626891      -0.71531975       0.03730998
O        3.19022862      -1.65950938       1.06065955
C        3.09992886      -1.22651953       2.34455909
O        2.70184904      -0.13718995       2.72303882
H        0.62700974       1.22917948       0.14017995
H       -0.15063995       0.52246978      -1.10524951
H        0.68456971      -1.27832945       0.27356988
H        2.55579896      -0.81815969      -2.16758908
H        2.25566909      -2.39656910      -1.31511948
H        3.40479876       0.19391993      -0.04731998
H        3.44309861      -2.02982921       3.01509887
