14
Properties=species:S:1:pos:R:3 atomization_energy=-1461.17 smiles=O.C.C.C.C.N.C.H.H.H.H.H.H.H pbc="F F F"
O        1.43078939       0.32869988       0.82676967
C        2.43021899       0.00109000       0.20759991
C        2.84241900      -1.40780945      -0.15053994
C        4.10417849      -1.26523952      -1.01837962
C        4.50854842       0.17722993      -0.97061962
N        3.67162847       1.16423951      -1.63822940
C        3.48225865       0.95411961      -0.20214992
H        2.04032922      -1.91677926      -0.69106971
H        3.07012878      -1.95027926       0.77225968
H        4.90276806      -1.90964926      -0.63571977
H        3.89938846      -1.57476935      -2.04968920
H        5.56284796       0.37773986      -0.85827966
H        4.17976836       2.03517914      -1.80366925
H        3.78693855       1.73263926       0.48173980
