20
Properties=species:S:1:pos:R:3 atomization_energy=-1937.43 smiles=C.C.C.C.C.C.N.H.H.H.H.H.H.H.H.H.H.H.H.H pbc="F F F"
C        1.02592962      -0.00103000      -0.10510996
C        2.54116904       0.00786999       0.03056999
C        3.04862890       1.11336953       0.95216960
C        4.48374829       0.68707972       1.22277948
C        4.42773832      -0.83535966       1.33917951
C        3.10747886      -1.26536947       0.68035976
N        3.29174880      -2.35499904      -0.27038988
H        0.69520971      -0.81286969      -0.76058968
H        0.67225973       0.94346960      -0.53149977
H        0.53848979      -0.13256995       0.86709965
H        2.98218882       0.15182994      -0.96567961
H        2.47846901       1.14375955       1.88864924
H        2.99589873       2.10158920       0.48522982
H        5.12013781       0.96570963       0.37381986
H        4.89752815       1.15810951       2.11922904
H        5.31340791      -1.28838952       0.87921963
H        4.42658820      -1.13791960       2.39317903
H        2.42838908      -1.61734936       1.46740946
H        3.95484835      -2.07192917      -0.99196962
H        2.41422901      -2.54021902      -0.75458969
