18
Properties=species:S:1:pos:R:3 atomization_energy=-1781.7 smiles=C.C.C.C.C.C.N.H.H.H.H.H.H.H.H.H.H.H pbc="F F F"
C        1.05264961      -0.03908998      -0.03967998
C        2.54588890       0.06232998      -0.00317000
C        3.46270853      -0.59137975      -1.09539951
C        4.53100842      -0.33295986       0.00549000
C        3.41898861      -0.76975971       1.00129963
C        4.52617830       1.17684952       0.13043994
N        3.08166890       1.43985943       0.13474995
H        0.60276979       0.36789986       0.87217965
H        0.73237974      -1.08230957      -0.12763995
H        0.63746976       0.50628980      -0.89369966
H        3.58055858      -0.04866998      -2.03844923
H        3.25892883      -1.64420940      -1.32327949
H        5.46892774      -0.88432965      -0.02223999
H        3.20908862      -1.84516929       1.03945956
H        3.49517852      -0.39428986       2.02716926
H        4.98984808       1.51867939       1.06077954
H        5.02134811       1.66177935      -0.71827972
H        2.84415883       2.05509918      -0.64313976
