13
Properties=species:S:1:pos:R:3 atomization_energy=-1264.86 smiles=C.O.N.C.N.C.C.H.H.H.H.H.H pbc="F F F"
C        2.03793914       0.44779982      -1.50358935
O        2.69615897       1.65615930      -1.12861955
N        3.27431877       1.42498942       0.12633995
C        4.61634836       1.67364939       0.14657994
N        5.45449792       1.69498930      -0.82545969
C        5.24508771       1.94887920       1.40957943
C        5.77194780       2.18213926       2.46384894
H        1.62192930       0.58384974      -2.50557898
H        1.21851950       0.22913992      -0.81140970
H        2.74651899      -0.38662983      -1.53222945
H        2.75286891       1.83769927       0.89587967
H        4.90811799       1.50485946      -1.67246936
H        6.26023755       2.39138900       3.38745856
