12
Properties=species:S:1:pos:R:3 atomization_energy=-1279.69 smiles=C.O.C.C.C.C.N.H.H.H.H.H pbc="F F F"
C        1.01209960      -0.07735997       0.01268000
O        2.43134893      -0.00918000       0.01254999
C        2.89400889       1.33854944       0.00000000
C        4.33800832       1.33854944       0.00000000
C        5.52816805       1.33854944       0.00000000
C        7.06259745       1.33476952       0.00003000
N        8.22215698       1.34259948      -0.00004000
H        0.71786974      -1.13026955       0.02269999
H        0.60553975       0.39021985      -0.88927963
H        0.60485979       0.40749984       0.90515966
H        2.51302906       1.86182920       0.88421963
H        2.51306893       1.84527931      -0.89382967
