13
Properties=species:S:1:pos:R:3 atomization_energy=-1326.82 smiles=N.C.C.C.C.C.H.H.H.H.H.H.H pbc="F F F"
N        1.01431961      -0.01977999       0.01560000
C        2.46999901       0.00000000       0.00000000
C        2.95201883       1.36116943       0.00000000
C        3.34929875       2.48306901       0.00000000
C        3.81862858       3.80841850       0.00000000
C        2.97878891       4.84880803       0.00479000
H        0.69402974      -0.98091959      -0.08134997
H        0.67049972       0.48296981      -0.80027968
H        2.82940880      -0.53204979      -0.88722963
H        2.84378891      -0.53890979       0.87651968
H        4.89079797       3.97523848      -0.00247000
H        1.90147928       4.71152822       0.01063000
H        3.35650861       5.86564748       0.00639000
