17
Properties=species:S:1:pos:R:3 atomization_energy=-1598.79 smiles=C.N.C.O.C.N.C.H.H.H.H.H.H.H.H.H.H pbc="F F F"
C        1.18735949       0.29153988       1.54202937
N        2.32617903       1.04897958       2.01318923
C        3.43681859       1.19216955       1.23017948
O        4.34015818       2.11286916       1.65639939
C        4.47231818       2.37626905       3.05958891
N        3.62586870       0.54714980       0.13236995
C        4.86576822       0.83523967      -0.57749976
H        0.44467981       0.21064992       2.34175897
H        1.47762938      -0.72315975       1.25093952
H        0.71737972       0.79041971       0.68829974
H        2.07064922       1.88348920       2.52215891
H        5.46312765       2.80893893       3.22720878
H        4.39567812       1.45396942       3.64477865
H        3.71943842       3.10481878       3.37460859
H        4.92616825       0.19222993      -1.46133938
H        5.74459762       0.62227973       0.04057999
H        4.89699825       1.87362923      -0.92377962
