12
Properties=species:S:1:pos:R:3 atomization_energy=-1191.44 smiles=C.O.C.C.C.O.H.H.H.H.H.H pbc="F F F"
C        0.14611994       0.98643959      -0.15629994
O       -0.70040975      -0.12825995       0.13801995
C        0.70539973      -0.40555986       0.00543000
C        1.36758949      -0.90455961       1.27485952
C        1.23010958      -2.32296912       1.76817936
O        2.40362908      -1.88162926       1.07764952
H        0.09483996       1.40471940      -1.15336959
H        0.31453987       1.71014935       0.63046977
H        1.00959963      -0.90741966      -0.90994966
H        1.55208943      -0.15297994       2.03671925
H        0.55148977      -2.98436871       1.24375957
H        1.31072954      -2.50494891       2.83174892
