16
Properties=species:S:1:pos:R:3 atomization_energy=-1602.21 smiles=C.N.C.C.C.C.O.H.H.H.H.H.H.H.H.H pbc="F F F"
C        1.18571959      -0.30923987      -0.10289996
N        2.61906900      -0.18905992       0.05800998
C        3.30153875       1.00335960       0.09875996
C        4.62474797       1.21029956       0.01045000
C        5.68598763       0.16939994      -0.14675994
C        5.09224814       2.62046894       0.08332997
O        6.27518767       2.93132893      -0.00194000
H        0.88557964      -1.35412951       0.01898999
H        0.88233964       0.02326999      -1.10025954
H        0.65729977       0.28682989       0.64774973
H        3.15824867      -0.99952959      -0.23696991
H        2.62224888       1.84645933       0.22586991
H        5.28317812      -0.84720964      -0.15427994
H        6.40330735       0.22788992       0.67884975
H        6.22781753       0.31625989      -1.08696963
H        4.30909822       3.38535865       0.21613992
