14
Properties=species:S:1:pos:R:3 atomization_energy=-1462.97 smiles=N.C.C.C.C.C.O.H.H.H.H.H.H.H pbc="F F F"
N        1.13777955      -0.07012997       0.20653992
C        2.51509894       0.01802999       0.08732996
C        3.22664886      -1.22852948      -0.17035994
C        2.79856888      -2.44581912       0.19109992
C        3.13226889       1.21081948       0.16439993
C        4.58859798       1.45123944       0.09422996
O        5.04213819       2.59018893       0.09661996
H        0.64809977       0.80888967       0.06003997
H        0.73939972      -0.82252969      -0.35089986
H        4.17596825      -1.17244949      -0.69891973
H        1.87593932      -2.59332894       0.74434970
H        3.38476870      -3.32892881      -0.03789998
H        2.56004897       2.11844909       0.33079987
H        5.24416771       0.56996975       0.04928998
