12
Properties=species:S:1:pos:R:3 atomization_energy=-1224.46 smiles=N.C.C.C.C.N.H.H.H.H.H.H pbc="F F F"
N        5.39692804      -1.72927935      -0.56092980
C        4.56993809      -0.95809964      -0.29558988
C        3.52897854       0.01671999       0.04541998
C        4.25271833       1.32719945       0.13156995
C        4.42164805       2.20426922      -1.08549954
N        3.48379863       2.56495908      -0.02605999
H        3.07046867      -0.22457991       1.00965962
H        2.74214887       0.02839999      -0.71637973
H        5.01603805       1.34742948       0.90300967
H        3.97880846       1.89636919      -2.02511920
H        5.31856808       2.80597884      -1.17042958
H        3.86725837       3.31583862       0.55369981
