15
Properties=species:S:1:pos:R:3 atomization_energy=-1444.04 smiles=C.N.N.C.C.C.O.H.H.H.H.H.H.H.H pbc="F F F"
C        1.38240941       1.97294920      -0.21269992
N        2.57943886       2.07450913      -0.68741974
N        3.54457867       1.95819918       0.25767989
C        4.92968827       2.08201914      -0.21717992
C        5.19447813       3.45701871      -0.81568968
C        6.62708733       3.60485859      -1.24824955
O        7.51360728       2.78467880      -1.02901961
H        0.52028980       2.05238914      -0.89358964
H        1.15806951       1.81487932       0.85666966
H        3.46431866       1.07269954       0.76618967
H        5.14407799       1.29331944      -0.94855963
H        5.59877791       1.91552921       0.63530973
H        4.98303816       4.24994824      -0.08950996
H        4.57003801       3.62644855      -1.70007932
H        6.85951722       4.54598832      -1.77669933
