15
Properties=species:S:1:pos:R:3 atomization_energy=-1476.65 smiles=C.N.C.O.C.C.N.H.H.H.H.H.H.H.H pbc="F F F"
C        2.01920922      -0.51412979       0.49893980
N        3.37059879      -0.07408997       0.29441989
C        4.26631848      -0.79527968      -0.45298984
O        4.05327848      -1.89234930      -0.94911961
C        5.59718772      -0.14469994      -0.61732974
C        5.86434747       0.73819970      -1.80321934
N        5.63757788       1.32772948      -0.48617982
H        1.59878939       0.03145999       1.34695952
H        1.99918926      -1.58853932       0.69923975
H        1.43794941      -0.30258987      -0.40349985
H        3.63363848       0.89017963       0.47764982
H        6.43014733      -0.69156970      -0.19140993
H        5.07442800       0.87218967      -2.53268894
H        6.87348729       0.78200970      -2.19460922
H        6.52385760       1.61463932      -0.06432997
