15
Properties=species:S:1:pos:R:3 atomization_energy=-1429.97 smiles=C.N.C.N.O.C.C.H.H.H.H.H.H.H.H pbc="F F F"
C        0.87313964       0.32896987       0.10033996
N        2.31230913       0.07635997       0.11835995
C        3.01521873       1.15624957       0.01312000
N        4.39426809       1.19405952       0.00716000
O        4.97933798      -0.07536997       0.12894995
C        5.20994806       2.29635902      -0.09940996
C        6.54670721       2.34161917      -0.10582996
H        0.35184985      -0.55106977       0.48937982
H        0.52564979       0.50189980      -0.92316961
H        0.59252975       1.18077958       0.72995969
H        2.55908910       2.15838909      -0.08649997
H        4.19579846      -0.66387975       0.18618992
H        4.65216830       3.22506876      -0.18696992
H        7.13674701       1.43444945      -0.02035999
H        7.07479717       3.28391871      -0.19634993
