13
Properties=species:S:1:pos:R:3 atomization_energy=-1298.52 smiles=N.N.C.C.C.C.O.H.H.H.H.H.H pbc="F F F"
N        1.31245952       0.02376999       0.01729000
N        2.68321892       0.40249983       0.01558999
C        3.74435841      -0.60074975      -0.07810997
C        3.44416875      -1.82242932       0.68523972
C        3.20348863      -2.82232889       1.30715943
C        2.98875877       1.73691930      -0.21487992
O        4.10992836       2.19044903      -0.41238983
H        1.11203962      -0.38635984       0.93407965
H        1.18949951      -0.74013968      -0.65239975
H        4.68370819      -0.16183994       0.27674989
H        3.87731856      -0.83409964      -1.14063960
H        2.99527876      -3.70853847       1.86127925
H        2.09325924       2.38134898      -0.20038993
