17
Properties=species:S:1:pos:R:3 atomization_energy=-1586.7 smiles=N.C.C.C.N.C.O.H.H.H.H.H.H.H.H.H.H pbc="F F F"
N        2.71180881      -0.92074963      -0.82404966
C        2.29015899       0.13119994       0.09168996
C        3.31510862       1.21501954       0.09379997
C        3.46675870       2.23483915      -1.00866960
N        2.62747895       2.20550917      -2.20952906
C        2.88505895       2.64081895       0.32139987
O        3.74677852       3.41645874       1.16892959
H        2.04588922      -1.69054927      -0.77352967
H        3.60229869      -1.30258946      -0.50695980
H        2.18697923      -0.27851990       1.10214962
H        1.30563951       0.50112981      -0.21286992
H        4.22512843       0.89444965       0.59171976
H        4.48760845       2.55640909      -1.20922954
H        1.66572934       1.95770928      -1.98109926
H        2.94293894       1.43674945      -2.80625893
H        1.82309926       2.85881877       0.36317984
H        3.82295858       4.32667814       0.83164969
