12
Properties=species:S:1:pos:R:3 atomization_energy=-1319.61 smiles=O.C.C.C.N.C.C.H.H.H.H.H pbc="F F F"
O        0.98189959      -0.05599998       0.41085985
C        2.15098922       0.11105996       0.11691995
C        2.91067890       1.36146944       0.22691991
C        4.13122840       1.04395958      -0.22022991
N        4.38184835      -0.25710991      -0.63624973
C        4.27502845      -1.33705942       0.34677985
C        3.05824878      -0.92955965      -0.41659985
H        2.51641913       2.30362919       0.55538980
H        4.94859797       1.74240928      -0.35407986
H        4.79270823      -2.23714924       0.04378998
H        4.40066822      -1.03954958       1.37938951
H        2.73688902      -1.50097936      -1.27658950
