16
Properties=species:S:1:pos:R:3 atomization_energy=-1530.41 smiles=C.N.C.C.O.C.O.H.H.H.H.H.H.H.H.H pbc="F F F"
C        1.37518945       0.25219990       0.79901967
N        2.81900897       0.31598989       0.97463964
C        3.44581874       1.15948950      -0.05308998
C        4.97426814       1.02823959       0.00224000
O        5.35067774      -0.30944988      -0.33726987
C        5.58921758       2.02880917      -0.96039964
O        6.26869771       1.68606938      -1.92634930
H        0.94069963      -0.38321987       1.57644937
H        1.10590961      -0.17417993      -0.17313993
H        0.92344964       1.24499952       0.89178963
H        3.21696867      -0.62514974       0.89151964
H        3.14883873       2.20401916       0.09643996
H        3.10160888       0.84588969      -1.04729956
H        5.35923783       1.24834947       1.00401957
H        5.88131776      -0.24528991      -1.15814950
H        5.40813811       3.09285878      -0.73276972
