14
Properties=species:S:1:pos:R:3 atomization_energy=-1365.72 smiles=C.O.C.C.C.N.O.H.H.H.H.H.H.H pbc="F F F"
C        3.17591866      -1.09324952      -0.41045984
O        2.34366912       0.01759999      -0.11231995
C        3.06727870       1.24447946      -0.06346997
C        3.31356865       1.79173928      -1.44955942
C        3.08002875       3.22194868      -1.17566949
N        2.52861910       3.49922869      -0.04611998
O        2.29711904       2.26099909       0.60453977
H        2.55330895      -1.99182926      -0.43366984
H        3.93843849      -1.21986947       0.36357985
H        3.64927848      -0.97464960      -1.38960942
H        3.99842848       1.12236956       0.50426979
H        2.60171896       1.43727947      -2.20000911
H        4.33172830       1.61270937      -1.80175923
H        3.34196878       3.98539834      -1.92015924
