15
Properties=species:S:1:pos:R:3 atomization_energy=-1466.18 smiles=N.C.C.C.C.C.H.H.H.H.H.H.H.H.H pbc="F F F"
N        1.14370959      -0.33484985       0.22915991
C        2.58588895      -0.30985988       0.45590981
C        3.19977886       0.93356963      -0.18882992
C        4.70283793       1.04467960       0.06961998
C        5.46695804       0.00361000      -0.63345977
C        6.09283746      -0.84713968      -1.20781952
H        0.75710972      -1.19098953       0.62530979
H        0.95802961      -0.37923984      -0.77251971
H        3.02727890      -1.22249952       0.04218999
H        2.77490878      -0.30627987       1.53475945
H        2.71319891       1.82842925       0.22047991
H        3.00524887       0.93112965      -1.26934949
H        4.90427801       0.99534960       1.14592960
H        5.04719793       2.02809923      -0.27203990
H        6.64760741      -1.60000941      -1.71735934
