18
Properties=species:S:1:pos:R:3 atomization_energy=-1719.74 smiles=N.C.C.O.C.C.C.H.H.H.H.H.H.H.H.H.H.H pbc="F F F"
N        1.53148936       0.32377986      -0.07799997
C        2.73746888      -0.14500995      -0.77666968
C        2.34649901      -1.17609959      -1.85487925
O        1.24719947      -0.69504973      -2.63339889
C        3.37360860       1.07747957      -1.38187951
C        4.47361820       1.80749926      -0.64992975
C        4.79109836       1.03292961      -1.89757925
H        1.81212929       0.99552964       0.63771975
H        1.11409953      -0.45984981       0.42526983
H        3.41981878      -0.61628976      -0.06007998
H        2.02720926      -2.11220919      -1.38390952
H        3.18024867      -1.39355942      -2.52912906
H        0.76816971      -0.09199996      -2.03106917
H        2.67028897       1.66732937      -1.96422927
H        4.83437821       1.40998947       0.29231989
H        4.48863847       2.89056885      -0.70684974
H        5.01091825       1.59038941      -2.80169879
H        5.35290785       0.11175996      -1.80052924
