20
Properties=species:S:1:pos:R:3 atomization_energy=-1918.18 smiles=C.C.C.C.C.C.N.H.H.H.H.H.H.H.H.H.H.H.H.H pbc="F F F"
C        0.92589965       0.14600994      -0.27187990
C        2.41072918       0.11762996       0.00774000
C        2.71934898      -0.01137999       1.48267941
C        3.30066871      -0.62211975      -0.96575959
C        3.37327855       0.88461964      -0.91143962
C        2.83833881       1.65389929      -2.09870921
N        4.58495836       1.49173937      -0.33212988
H        0.68895971       0.02507999      -1.33318942
H        0.49635981       1.09305951       0.07068997
H        0.42185983      -0.66940972       0.25864990
H        3.77823842      -0.20388992       1.68048933
H        2.15792909      -0.84458969       1.91735924
H        2.43347911       0.90506964       2.00777925
H        2.84776893      -1.08590959      -1.83636923
H        4.13565833      -1.19675959      -0.57973977
H        2.07115918       1.10525960      -2.65210901
H        3.64683868       1.86999932      -2.80532883
H        2.40899894       2.60540905      -1.76912926
H        5.06864811       0.85207969       0.29444988
H        4.33818848       2.30846916       0.22534992
