16
Properties=species:S:1:pos:R:3 atomization_energy=-1546.45 smiles=N.C.C.C.O.C.O.H.H.H.H.H.H.H.H.H pbc="F F F"
N        0.75616972      -0.50427979       0.10573996
C        2.21021919      -0.39419984       0.10636996
C        2.63280894       1.05543957      -0.10234996
C        4.15225845       1.19376959      -0.08816997
O        4.52830797       2.56903903      -0.26319989
C        4.61338802       2.99393887      -1.54753940
O        4.40058849       2.33280903      -2.55142909
H        0.48960982      -1.48487937       0.18748993
H        0.38818984      -0.18552993      -0.79071967
H        2.62239901      -1.02766957      -0.68665972
H        2.59408896      -0.76476967       1.06286959
H        2.20639915       1.69831931       0.67853976
H        2.23485908       1.43449941      -1.05209959
H        4.62548831       0.56012978      -0.84899968
H        4.54907837       0.87734966       0.88171966
H        4.90874831       4.05387853      -1.55417937
