14
Properties=species:S:1:pos:R:3 atomization_energy=-1420.65 smiles=C.N.C.C.O.C.C.H.H.H.H.H.H.H pbc="F F F"
C        1.00621959      -0.03392999       0.25837990
N        2.46061910       0.04565998       0.35928987
C        2.96069877       1.38567949       0.00000000
C        2.46228903       2.41415911       1.01121960
O        1.73319931       3.36114873       0.72273974
C        4.40469846       1.38567949       0.00000000
C        5.59485769       1.38567949       0.00000000
H        0.68988974      -1.06839956       0.42175984
H        0.64764974       0.27377989      -0.73142971
H        0.51481979       0.57668978       1.02418961
H        2.86505892      -0.62110973      -0.29740989
H        2.59274908       1.67175930      -0.99291959
H        2.78252894       2.24971912       2.05549925
H        6.66088761       1.38338946       0.00151000
