14
Properties=species:S:1:pos:R:3 atomization_energy=-1372.75 smiles=N.C.C.O.C.O.C.H.H.H.H.H.H.H pbc="F F F"
N        0.85861968      -0.05267998      -0.34320987
C        2.25108903       0.00454000       0.12689995
C        3.31893876      -0.83768968      -0.52596981
O        3.03582889      -1.43670945      -1.80997930
C        2.86565897      -0.36573987      -2.75277883
O        3.04135873       0.90824964      -2.11019912
C        3.32238863       0.65040974      -0.71625974
H        0.35940985       0.80265967      -0.10422996
H        0.35930987      -0.82538967       0.09466997
H        2.34723910       0.14164995       1.20170957
H        4.08273841      -1.28232953       0.09804996
H        3.61505857      -0.46846982      -3.54303869
H        1.86270921      -0.41851984      -3.18515878
H        4.08829828       1.23454947      -0.22415991
