18
Properties=species:S:1:pos:R:3 atomization_energy=-1662.77 smiles=C.N.C.C.O.C.O.H.H.H.H.H.H.H.H.H.H.H pbc="F F F"
C        1.45717945      -0.38318983       0.00892000
N        2.89967877      -0.36124985       0.23934990
C        3.48681853       0.88701963      -0.28301988
C        4.99026796       0.96691962       0.03930998
O        5.19836807       0.66897974       1.43302946
C        5.83839772      -0.00739000      -0.78174967
O        7.21645694       0.16593994      -0.44821983
H        1.03929959      -1.30905949       0.41520982
H        1.22401956      -0.34735987      -1.06028963
H        0.96174961       0.45219982       0.51306982
H        3.31011877      -1.16407954      -0.24126991
H        2.99403880       1.73115934       0.21403991
H        3.32359881       0.98107963      -1.36236951
H        5.35276805       1.98853924      -0.11911995
H        4.43721840       0.10227996       1.68257939
H        5.72043791       0.16743994      -1.85495924
H        5.58600793      -1.04850961      -0.55958979
H        7.23270708       0.26111989       0.52558979
