20
Properties=species:S:1:pos:R:3 atomization_energy=-1860.91 smiles=C.N.C.C.C.C.O.H.H.H.H.H.H.H.H.H.H.H.H.H pbc="F F F"
C        1.29810945       2.51010908       0.32037989
N        2.70703900       2.34781895       0.66956976
C        3.41875873       1.59289935      -0.37137985
C        4.91471796       1.43630938      -0.02822999
C        5.59659776       0.55983979      -1.07930960
C        5.63805781       2.78858892       0.06326998
O        5.15643818       3.56089870       1.15618951
H        0.78494968       3.04354871       1.12625950
H        0.80249969       1.54365943       0.18698992
H        1.18473953       3.10255890      -0.59281974
H        2.76464899       1.82608926       1.54807939
H        3.31901875       2.10689913      -1.33591952
H        2.96657885       0.59826978      -0.47603982
H        4.99238805       0.93388965       0.94463966
H        5.52778804       1.00404960      -2.07665924
H        5.13499810      -0.43350983      -1.11793950
H        6.65854749       0.42179983      -0.84410969
H        5.50953793       3.37230859      -0.85443969
H        6.71222743       2.64127894       0.21930991
H        4.17601846       3.52889855       1.09091962
