14
Properties=species:S:1:pos:R:3 atomization_energy=-1453.71 smiles=O.C.C.C.C.C.N.H.H.H.H.H.H.H pbc="F F F"
O        0.87441965      -0.03079999       0.14978994
C        2.31578903      -0.00574000       0.00580000
C        3.04455880       1.05926958       0.87894963
C        4.10287848      -0.00289000       1.22626948
C        3.07743882      -1.08216953       0.83583965
C        2.67238887       0.02827999      -1.40983945
N        2.98998888       0.05566998      -2.52666908
H        0.70612972      -0.05323998       1.10673953
H        2.46168899       1.39835939       1.74385930
H        3.43006872       1.94189921       0.35922985
H        4.98366798       0.02373999       0.57459978
H        4.43388814      -0.01878999       2.26782919
H        3.48943874      -1.93093921       0.28123990
H        2.50575889      -1.47346945       1.68603936
