12
Properties=species:S:1:pos:R:3 atomization_energy=-1216.53 smiles=C.N.O.C.O.C.C.H.H.H.H.H pbc="F F F"
C        0.74568971      -0.06150997       0.06245997
N        2.15366923      -0.02156999      -0.27422989
O        2.79337893      -1.24755955       0.05959998
C        2.97079884       1.08959955      -0.15353994
O        4.18787828       0.99310959      -0.01115999
C        2.36244912       2.40154911      -0.17283992
C        1.86749921       3.49760872      -0.18372993
H        0.22623991       0.79688968      -0.37028984
H        0.64207972      -0.03099999       1.15110958
H        0.30885989      -0.98613963      -0.32458987
H        3.72827860      -0.97119961       0.17961992
H        1.44140938       4.47329824      -0.19166993
