12
Properties=species:S:1:pos:R:3 atomization_energy=-1259.05 smiles=N.C.O.C.C.C.O.H.H.H.H.H pbc="F F F"
N        1.02820962       0.05416998       0.03483999
C        2.38380896      -0.03348999      -0.00761000
O        2.98236873      -1.09735962      -0.05376998
C        3.09949888       1.21762952       0.00000000
C        3.69457850       2.24833912       0.00000000
C        4.41657821       3.49887870       0.00000000
O        3.51091869       4.57743838      -0.18985992
H        0.54933978       0.94021963       0.10100996
H        0.49727980      -0.80477969       0.04763998
H        5.16434776       3.53344859      -0.79807967
H        4.93349797       3.65724861       0.95089962
H        3.06794890       4.42192814      -1.04086959
