16
Properties=species:S:1:pos:R:3 atomization_energy=-1594.53 smiles=N.C.C.C.C.C.O.H.H.H.H.H.H.H.H.H pbc="F F F"
N        2.37452898      -0.37418984       1.46068937
C        2.58085898       0.00474000       0.06587998
C        3.09967879       1.40341939      -0.03959998
C        4.26817816       1.80384929      -0.53766978
C        4.37518832       3.27071876      -0.39605983
C        2.95935890       3.63249845       0.03748998
O        2.28401901       2.42637901       0.44729983
H        1.80027930      -1.21303950       1.49294942
H        1.82356923       0.36431984       1.90055928
H        1.63052938      -0.06381997      -0.47529980
H        3.27339877      -0.70542975      -0.39828984
H        5.03744785       1.15917951      -0.93452962
H        5.10986793       3.53312863       0.37179986
H        4.64805833       3.77075857      -1.32935954
H        2.39254896       4.07418842      -0.79094967
H        2.95874876       4.34474808       0.86914965
