18
Properties=species:S:1:pos:R:3 atomization_energy=-1714.63 smiles=N.C.C.C.C.C.O.H.H.H.H.H.H.H.H.H.H.H pbc="F F F"
N        1.04764960       0.01719999       0.07430997
C        2.49821898       0.01822999      -0.05721998
C        3.08637867       1.06210957       0.91606964
C        4.13893838      -0.00339000       1.29596955
C        3.10299872      -1.07866957       0.86295965
C        3.65359864      -2.29856919       0.14872994
O        4.34222830      -3.12770876       1.07743958
H        0.58967979      -0.77964971      -0.36763986
H        0.59834977       0.84767967      -0.30874988
H        2.88721890       0.06183998      -1.07949961
H        2.44645903       1.34985943       1.75906932
H        3.48613875       1.96828928       0.45292981
H        5.04296785       0.03516999       0.67653971
H        4.43127802      -0.02369999       2.34910912
H        2.44933914      -1.36989946       1.69958929
H        4.34524820      -2.02926916      -0.65586975
H        2.84074882      -2.88819896      -0.28606990
H        5.06571803      -2.60372902       1.46085945
