14
Properties=species:S:1:pos:R:3 atomization_energy=-1423.26 smiles=C.O.C.O.N.C.C.H.H.H.H.H.H.H pbc="F F F"
C        4.31308808      -1.90208929       0.84780968
O        4.96159808      -0.77566969       0.25647990
C        4.11083827       0.21106992      -0.12813995
O        2.89551884       0.18061993       0.01034000
N        4.83543801       1.22729949      -0.69079971
C        4.29504841       2.37523904      -1.19982958
C        5.05024811       3.33280865      -1.74231932
H        5.07279794      -2.66191888       1.05054958
H        3.57409865      -2.32925898       0.16241994
H        3.84558841      -1.61710940       1.79532933
H        5.83479746       1.08055953      -0.71772970
H        3.21187864       2.47217890      -1.14414953
H        6.13007752       3.25554860      -1.80799925
H        4.58926818       4.23149828      -2.14005924
