12
Properties=species:S:1:pos:R:3 atomization_energy=-1365.1 smiles=O.C.C.C.C.C.N.H.H.H.H.H pbc="F F F"
O        1.04842956      -0.08314997       0.17241994
C        2.40145903       0.01671999       0.03734998
C        3.02214875       1.25206946      -0.05038998
C        4.40729848       1.27841953      -0.18786993
C        5.11040792       0.07875996      -0.23164990
C        4.39326835      -1.10283962      -0.13519994
N        3.05147873      -1.15794952      -0.00139000
H        0.68269975       0.81199965       0.18414993
H        2.46106901       2.17704923      -0.01458999
H        4.93510785       2.22554907      -0.26033990
H        6.18939757       0.06370997      -0.33812988
H        4.89348832      -2.06617917      -0.16385993
