19
Properties=species:S:1:pos:R:3 atomization_energy=-1727.43 smiles=N.C.C.O.C.C.N.H.H.H.H.H.H.H.H.H.H.H.H pbc="F F F"
N        3.20684867      -0.95704963      -0.11684995
C        2.82362890      -0.15048994       1.04624961
C        2.71192892       1.33424946       0.68266973
O        4.00760854       1.82872927       0.31954988
C        3.94444852       3.20851886      -0.06380997
C        5.34743781       3.68830857      -0.45220981
N        5.83693773       2.99598882      -1.64805934
H        3.51035851      -1.87713928       0.19720992
H        4.02426846      -0.51394979      -0.54201978
H        3.58518861      -0.27968989       1.82341934
H        1.86732927      -0.51443978       1.43318943
H        2.34632919       1.89372930       1.55110938
H        2.01240914       1.47331944      -0.15009994
H        3.58073849       3.80014860       0.78376971
H        3.25146866       3.32951875      -0.90514963
H        6.04168739       3.48869865       0.37216987
H        5.33546772       4.76545797      -0.64280978
H        5.70773757       1.99294923      -1.49665945
H        6.84067716       3.14545875      -1.73598934
