12
Properties=species:S:1:pos:R:3 atomization_energy=-1304.19 smiles=N.C.C.C.C.C.O.H.H.H.H.H pbc="F F F"
N        0.99999962       0.00000000       0.00000000
C        2.15100915       0.00000000       0.00000000
C        3.55700851       0.00000000       0.00000000
C        4.27965823       1.06536956      -0.37900984
C        5.74344749       1.15407952      -0.37516987
C        6.53560766       0.35172987      -1.37807940
O        6.45994765       1.77932925      -1.45140939
H        4.04979833      -0.90450965       0.33927988
H        3.76387850       1.96559917      -0.71257975
H        6.17358750       1.28122949       0.61426979
H        6.01762761      -0.21073992      -2.14477909
H        7.47554714      -0.08205997      -1.05925962
