16
Properties=species:S:1:pos:R:3 atomization_energy=-1562.49 smiles=N.C.C.C.C.O.O.H.H.H.H.H.H.H.H.H pbc="F F F"
N        2.81509884      -1.04422957       1.09678960
C        2.45218897      -0.21458991      -0.05414998
C        2.95058887       1.21907955       0.12930995
C        4.47076837       1.35781948       0.02123999
C        5.24521791       1.16610954       1.30328943
O        5.00824808       0.01178999       1.95283929
O        6.08757737       1.96232921       1.69282934
H        2.51823895      -2.00699916       0.89969965
H        2.21538920      -0.76908971       1.88703924
H        1.36336950      -0.21957992      -0.17041992
H        2.88248895      -0.65111974      -0.96172961
H        2.59150888       1.63218934       1.07943955
H        2.49910895       1.82276934      -0.66788974
H        4.67835827       2.38797899      -0.30025988
H        4.88900793       0.70030970      -0.74865971
H        4.27901831      -0.52617978       1.54869936
