15
Properties=species:S:1:pos:R:3 atomization_energy=-1452.81 smiles=C.O.C.N.N.C.C.H.H.H.H.H.H.H.H pbc="F F F"
C        0.95170960       0.24010991      -0.28949987
O        2.37944919       0.21493991      -0.38483986
C        3.06808869       1.33835944      -0.16538994
N        4.36422806       1.34925951      -0.14657994
N        4.71887812       2.62847894       0.14023994
C        3.62074864       3.55487858      -0.10812996
C        2.41060906       2.65453895       0.07221997
H        0.59313976      -0.79121967      -0.34266985
H        0.52937981       0.79747969      -1.13001961
H        0.63170973       0.66647971       0.66547972
H        5.59024760       2.90076884      -0.31732986
H        3.66875845       3.93306837      -1.13567952
H        3.62245869       4.40095840       0.58380975
H        1.63226933       2.87297884      -0.66156972
H        2.01846926       2.69043888       1.09255952
