11
Properties=species:S:1:pos:R:3 atomization_energy=-1180.16 smiles=N.C.C.N.O.C.C.H.H.H.H pbc="F F F"
N        1.06189963      -0.05063998      -0.00472000
C        2.22328919      -0.03218999      -0.01213000
C        3.65192846       0.05834998      -0.02143999
N        4.32489819      -1.03928962      -0.08933996
O        5.68943801      -0.64824973      -0.05919998
C        5.74163777       0.75586970      -0.35657987
C        4.41171831       1.31086946       0.08826997
H        5.89267771       0.87310967      -1.43541941
H        6.58212745       1.21480947       0.17153993
H        4.03623830       2.10932920      -0.55342975
H        4.42674817       1.63324938       1.13312959
