15
Properties=species:S:1:pos:R:3 atomization_energy=-1454.31 smiles=N.C.C.C.N.C.O.H.H.H.H.H.H.H.H pbc="F F F"
N        1.25555946       1.06699963      -1.73348937
C        2.14910910       0.51843980      -0.72191973
C        2.47528914       1.58723943       0.26847989
C        3.85522848       1.74263928       0.80410969
N        3.31209881       2.68645886      -0.13347996
C        3.00043893       3.97534850       0.27578990
O        2.60416909       4.32442835       1.38174944
H        1.06548955       0.35342986      -2.43510892
H        1.73992937       1.82038922      -2.22117920
H        3.05130891       0.12577995      -1.20387949
H        1.65551939      -0.31436986      -0.21089992
H        1.63374938       1.84948933       0.90068967
H        4.66719816       1.15813953       0.39578984
H        3.98664839       2.11024920       1.81412926
H        3.16673886       4.69251809      -0.54496978
