14
Properties=species:S:1:pos:R:3 atomization_energy=-1372.15 smiles=N.C.N.C.C.C.H.H.H.H.H.H.H.H pbc="F F F"
N        2.70053894      -1.28817946      -1.15335950
C        2.47543902      -0.37686985      -0.16164993
N        1.61105937      -0.60118976       0.77059972
C        3.26256871       0.93042962      -0.15090994
C        4.72620835       0.64174973       0.02998999
C        5.67637784       0.96803959      -0.85631968
H        3.59301870      -1.19714957      -1.63079937
H        2.47111911      -2.24976909      -0.93641965
H        1.14871950      -1.49625938       0.59962978
H        2.91005892       1.56486938       0.66911973
H        3.06651868       1.45424938      -1.09307957
H        5.00905806       0.14597994       0.95680960
H        5.44107794       1.47964942      -1.78493933
H        6.72042718       0.74304969      -0.65900976
