15
Properties=species:S:1:pos:R:3 atomization_energy=-1437.23 smiles=C.N.C.C.C.O.N.H.H.H.H.H.H.H.H pbc="F F F"
C        1.10105955       0.02602999       0.16493994
N        2.46610907       0.09039997      -0.33500986
C        3.13396884       1.17134958      -0.13042995
C        2.65777889       2.41357901       0.53841977
C        3.52395866       3.39397854      -0.22105991
O        4.74574838       2.71606892      -0.55914979
N        4.42779838       1.35046944      -0.53426980
H        0.74797968      -1.00825962       0.10224996
H        0.43086981       0.64106976      -0.44409983
H        1.03044957       0.32757988       1.21512955
H        2.92459875       2.36705896       1.59887934
H        1.59414940       2.62227891       0.41943984
H        3.04582878       3.71284854      -1.15438951
H        3.75420841       4.28225825       0.37395984
H        4.72016804       0.80434966      -1.33978952
