16
Properties=species:S:1:pos:R:3 atomization_energy=-1542.99 smiles=C.O.C.C.N.C.O.H.H.H.H.H.H.H.H.H pbc="F F F"
C        3.45447875      -1.13951950       0.11396996
O        4.36804835      -0.06076998       0.26239989
C        3.75537847       1.19112957      -0.07079997
C        4.79385835       2.30498900       0.07219997
N        5.20975780       2.48614897       1.45142945
C        4.48026814       3.24413869       2.32768898
O        3.48824875       3.90008843       2.04494915
H        3.96426838      -2.06477924       0.39817986
H        3.13126865      -1.22569946      -0.92808963
H        2.58778901      -1.00335960       0.76859968
H        2.90018898       1.36762948       0.59229975
H        3.40411873       1.15377950      -1.10836959
H        4.38325837       3.24886864      -0.30151989
H        5.69692770       2.05944924      -0.49532979
H        5.88982788       1.83504929       1.82356923
H        4.88986788       3.19902868       3.35052862
