14
Properties=species:S:1:pos:R:3 atomization_energy=-1423.43 smiles=N.C.O.O.C.C.C.H.H.H.H.H.H.H pbc="F F F"
N        1.46119946       2.36989895      -0.31462989
C        2.61975888       1.75366930      -0.63642977
O        2.69485897       0.86937965      -1.47239944
O        3.62684850       2.26545904       0.09943996
C        4.92274815       1.69852937      -0.12490995
C        5.87263756       2.83041888      -0.37499986
C        6.95876718       3.09775881       0.36194986
H        1.45338944       3.08524872       0.39569985
H        0.61232974       2.09399919      -0.78317970
H        4.95482803       1.01103962      -0.97671960
H        5.19922802       1.13806961       0.77487970
H        5.64575795       3.46252862      -1.23044947
H        7.22885701       2.49540902       1.22361949
H        7.60286694       3.93597851       0.11367996
