14
Properties=species:S:1:pos:R:3 atomization_energy=-1418.74 smiles=N.C.C.O.C.C.C.H.H.H.H.H.H.H pbc="F F F"
N        1.03836961      -0.11870995      -0.18312993
C        2.50871899      -0.02758999      -0.06568997
C        3.34812869      -0.71855975      -1.11186955
O        2.59351895      -1.35196942      -2.16615912
C        3.29111873       0.78802970      -1.06824955
C        4.44561801       1.51068945      -0.61470979
C        5.41222789       2.11774912      -0.24204991
H        0.60653975       0.69287974       0.26228990
H        0.70064972      -0.92762963       0.34191986
H        2.88486894      -0.05692998       0.95484961
H        4.26043815      -1.20792954      -0.78856969
H        1.64857939      -1.12723955      -2.04753921
H        2.72976900       1.27202950      -1.86191929
H        6.27139766       2.65635902       0.08209996
