14
Properties=species:S:1:pos:R:3 atomization_energy=-1468.54 smiles=N.C.C.C.C.O.C.H.H.H.H.H.H.H pbc="F F F"
N        0.99999962       0.00000000       0.00000000
C        2.15100915       0.00000000       0.00000000
C        3.59500859       0.00000000       0.00000000
C        4.18659846       1.11417952       0.83704965
C        5.56576793       0.57836980       1.14778953
O        5.44203781      -0.84615969       1.23572950
C        4.17807824      -1.23092953       0.66885976
H        3.98324848       0.07514997      -1.02330960
H        3.62301862       1.24807948       1.76948934
H        4.21419845       2.08041923       0.32415987
H        6.27047766       0.80446971       0.34044988
H        5.96911743       0.97321964       2.08426917
H        4.33832827      -2.05051924      -0.03947999
H        3.55216854      -1.60884933       1.48623943
