12
Properties=species:S:1:pos:R:3 atomization_energy=-1251.77 smiles=C.O.C.C.C.N.O.H.H.H.H.H pbc="F F F"
C        3.27094863      -1.02070958       0.52550981
O        2.40443906       0.07305997       0.24625990
C        2.98263873       1.27026949       0.16504994
C        2.48243894       2.52237894      -0.08235997
C        3.61165866       3.35708872      -0.03218999
N        4.73133824       2.67713900       0.22688991
O        4.33083807       1.35299944       0.35183985
H        2.66550905      -1.93066921       0.56285975
H        3.75765853      -0.89643965       1.49912939
H        4.01734853      -1.14169952      -0.26723990
H        1.45257945       2.78381885      -0.27011989
H        3.67181847       4.42650846      -0.17182994
