14
Properties=species:S:1:pos:R:3 atomization_energy=-1419.26 smiles=C.C.C.O.C.C.H.H.H.H.H.H.H.H pbc="F F F"
C        0.78486969       1.37713947      -0.11274995
C       -0.70910975       1.19854950       0.19196993
C       -0.97394964      -0.23543990      -0.14696995
O       -0.63981978      -1.18569953       0.86741967
C        0.32747986      -0.96461962      -0.16146994
C        1.41783949       0.00700000       0.16819993
H        0.90815962       1.61835932      -1.17553954
H        1.24197949       2.18138908       0.47026983
H       -1.31814947       1.88135927      -0.40834985
H       -0.91629964       1.38773940       1.25173954
H       -1.74393928      -0.44692982      -0.86879967
H        0.53700980      -1.72472931      -0.89432966
H        1.70539935      -0.08096997       1.22243946
H        2.30790898      -0.14997994      -0.44891983
