15
Properties=species:S:1:pos:R:3 atomization_energy=-1417.48 smiles=N.C.C.C.O.N.C.H.H.H.H.H.H.H.H pbc="F F F"
N        0.33998987       0.24714990      -0.36460986
C        1.67104937      -0.25248989      -0.01104000
C        2.43051901      -1.05875962      -1.02177959
C        2.89703888       0.32726989      -0.67149972
O        4.06230841       0.42183983       0.17167993
N        5.17430778       0.32940988      -0.67500970
C        6.24203740       0.42619983       0.03983998
H        0.11162995       1.07373952       0.18764993
H       -0.37303984      -0.44729983      -0.14222995
H        1.78031927      -0.55330977       1.02847962
H        2.00186927      -1.20099951      -2.00647923
H        3.02793874      -1.89126920      -0.67248974
H        2.74825882       1.10926953      -1.40878950
H        7.23023726       0.37170987      -0.44010984
H        6.22303736       0.56418979       1.13441951
