13
Properties=species:S:1:pos:R:3 atomization_energy=-1264.78 smiles=N.C.N.O.C.C.C.H.H.H.H.H.H pbc="F F F"
N        0.99677962       1.73436937      -1.53114934
C        2.24948900       2.00207921      -1.40670941
N        2.88311877       2.12293907      -0.20851991
O        4.22036845       1.71295932      -0.26382990
C        5.01235805       2.80189889       0.22679991
C        6.43155736       2.43362899       0.16365994
C        7.59442696       2.13408908       0.11041995
H        0.75700973       1.70269928      -2.52892896
H        2.90170877       2.16843919      -2.28200919
H        2.34903898       1.70146929       0.54955981
H        4.72761837       3.02200871       1.26234956
H        4.83182815       3.69131863      -0.38819984
H        8.62429680       1.86648926       0.06049998
