16
Properties=species:S:1:pos:R:3 atomization_energy=-1482.03 smiles=N.C.C.C.N.C.H.H.H.H.H.H.H.H.H.H pbc="F F F"
N        2.31648900      -0.45190982      -1.42979949
C        2.41245916       0.03906998      -0.05730997
C        3.18727887       1.34323952      -0.01229999
C        2.46763896       2.61766907      -0.50335979
N        3.08723886       3.35408875       0.62722977
C        3.21015875       2.06706914       1.35071950
H        1.77652925      -1.31700944      -1.43969945
H        3.24521867      -0.69903972      -1.77062925
H        2.91231880      -0.71662973       0.55818980
H        1.40129943       0.17128993       0.34436987
H        4.19879842       1.23947952      -0.43366984
H        1.37292945       2.58835903      -0.44952984
H        2.76037879       2.97376878      -1.49560937
H        3.98938846       3.76359841       0.38249984
H        4.13084839       1.95355919       1.93046924
H        2.35640907       1.85792930       2.00640921
