16
Properties=species:S:1:pos:R:3 atomization_energy=-1591.54 smiles=N.C.C.C.O.C.C.H.H.H.H.H.H.H.H.H pbc="F F F"
N        2.21997911      -0.42630984      -1.49553935
C        2.39994908       0.06654997      -0.12902995
C        3.34380878       1.27323955      -0.07107997
C        3.55165858       1.76842929       1.36717945
O        3.55316853       3.21311885       1.35613945
C        2.99435875       3.52479867       0.13598994
C        2.82925892       2.51521904      -0.70814969
H        1.62924930      -1.25682957      -1.48178944
H        3.11765866      -0.71701971      -1.88082925
H        2.80284892      -0.74483973       0.48796982
H        1.41604945       0.32836986       0.27757990
H        4.31144843       1.01361958      -0.51972978
H        4.50660799       1.41950942       1.77524931
H        2.75346895       1.44013939       2.04474918
H        2.78333892       4.57071829      -0.01572999
H        2.43794916       2.58270908      -1.71275935
