13
Properties=species:S:1:pos:R:3 atomization_energy=-1359.55 smiles=C.N.C.O.C.C.N.H.H.H.H.H.H pbc="F F F"
C        1.37670950      -0.56960981      -0.26776989
N        2.76905899      -0.20399992      -0.17422994
C        3.14271869       1.12583961      -0.16186993
O        2.34159899       2.04706924      -0.29444988
C        4.62161805       1.36836945       0.01246999
C        4.94281808       1.52859942       1.42766943
N        5.23310803       1.62237933       2.54866908
H        1.30577943      -1.65464935      -0.37157986
H        0.92546961      -0.08032997      -1.13531958
H        0.86156968      -0.24637990       0.64080974
H        3.42364866      -0.91277962       0.13347996
H        4.89233820       2.26437906      -0.55642978
H        5.18553803       0.53527982      -0.42130984
