14
Properties=species:S:1:pos:R:3 atomization_energy=-1462.42 smiles=N.C.C.C.C.C.O.H.H.H.H.H.H.H pbc="F F F"
N        1.30033955      -0.65844971       0.82813971
C        2.57012910      -0.30422987       0.42046983
C        3.02627891       0.88264962      -0.02170999
C        2.20175903       2.07922924      -0.06042998
C        2.42300913       3.17206885      -0.80296966
C        4.47850838       0.93307961      -0.37948984
O        5.18510806      -0.05782998      -0.54482980
H        1.09849953      -1.64820935       0.69407970
H        0.56382978      -0.06574998       0.45324983
H        3.25024864      -1.15574958       0.48619982
H        1.31674954       2.06923919       0.57462974
H        3.25861872       3.26773873      -1.48838942
H        1.73419930       4.01169833      -0.75561970
H        4.90096793       1.94514924      -0.48510981
