18
Properties=species:S:1:pos:R:3 atomization_energy=-1707.6 smiles=C.O.C.C.C.C.N.H.H.H.H.H.H.H.H.H.H.H pbc="F F F"
C        1.99398922      -0.50511980      -1.00799960
O        1.80410931       0.70255974      -0.28236987
C        3.04675887       1.36898942       0.02611999
C        3.49599860       2.41572912      -0.95268966
C        2.95499887       2.84281895       0.38879985
C        1.59936937       3.50646857       0.41277984
N        3.91488841       3.38261859       1.37334945
H        1.01355958      -0.93787964      -1.22128947
H        2.57189895      -1.21707957      -0.41176985
H        2.50465898      -0.30464987      -1.95427922
H        3.81256859       0.78564971       0.52905979
H        2.88596885       2.58676909      -1.83226923
H        4.55803814       2.51574894      -1.13885953
H        0.95187961       3.16546887      -0.40211986
H        1.70583929       4.59212810       0.31484989
H        1.09142958       3.29495871       1.35927946
H        4.80859803       2.89648880       1.32977941
H        3.56095850       3.23466870       2.31838905
