16
Properties=species:S:1:pos:R:3 atomization_energy=-1516.14 smiles=N.C.C.C.O.C.O.H.H.H.H.H.H.H.H.H pbc="F F F"
N        0.70242972       0.84184968       1.16135953
C        1.73377929       0.14376995       0.40252983
C        2.95066886       1.01423962       0.25701990
C        3.77313855       1.22732952       1.49852935
O        4.97720780       1.93846927       1.21664947
C        3.54666873       1.20877951      -1.12555953
O        2.73524887       2.21800916      -0.51003979
H       -0.15391994       0.28943988       1.14866954
H        0.48232981       1.71130932       0.67137973
H        1.33065942      -0.13220995      -0.57839976
H        1.99942923      -0.78675971       0.91590966
H        4.05427847       0.26532988       1.94036921
H        3.21354883       1.79729927       2.24891923
H        4.68877803       2.78425892       0.82161965
H        3.12233865       0.67148975      -1.96513918
H        4.60820816       1.40149940      -1.22428956
