13
Properties=species:S:1:pos:R:3 atomization_energy=-1327.6 smiles=C.N.C.N.O.C.C.H.H.H.H.H.H pbc="F F F"
C        3.09032866      -1.22992954       0.40249983
N        2.56902894      -0.03576998      -0.22111992
C        3.20206876       1.15678956      -0.14172994
N        2.57655901       2.33160919      -0.26148990
O        3.55302849       3.30145876      -0.13153995
C        4.75293830       2.70340896       0.05750998
C        4.58789801       1.34443948       0.05886998
H        2.41415911      -2.06836915       0.20809992
H        3.16919883      -1.10424952       1.48732938
H        4.07140848      -1.49857944      -0.00218000
H        1.55418934       0.02646999      -0.22269992
H        5.59717762       3.36784863       0.16605994
H        5.35980810       0.60100978       0.17773993
