13
Properties=species:S:1:pos:R:3 atomization_energy=-1317.4 smiles=N.C.C.C.C.C.H.H.H.H.H.H.H pbc="F F F"
N        1.03480960      -0.00149000       0.25961989
C        2.46999901       0.00000000       0.00000000
C        2.72736882      -0.74457970      -1.28392944
C        3.33826860      -0.31347989      -2.39882898
C        2.95201883       1.36116943       0.00000000
C        3.34929875       2.48306901       0.00000000
H        0.85999968       0.53809981       1.10474952
H        0.73680973      -0.95152963       0.46294982
H        2.96514889      -0.55101980       0.80889970
H        2.37224916      -1.77401932      -1.28864954
H        3.72442853       0.69594973      -2.49575900
H        3.45242855      -0.97045964      -3.25539872
H        3.69832864       3.48947861      -0.00692000
