14
Properties=species:S:1:pos:R:3 atomization_energy=-1394.93 smiles=C.O.C.C.O.C.N.H.H.H.H.H.H.H pbc="F F F"
C        2.93124894      -0.47163983      -0.60392975
O        2.38392907       0.81107965      -0.32383988
C        3.26466862       1.85111926      -0.10723996
C        2.61330903       3.18215882       0.11691995
O        3.20559862       4.25713816       0.13427994
C        4.61127802       1.77315925      -0.08457997
N        5.53702791       2.76424880       0.16148994
H        2.09950923      -1.16541954      -0.75878967
H        3.52371870      -0.84000968       0.23969990
H        3.52604872      -0.44992981      -1.52299943
H        1.51935942       3.12970874       0.24828990
H        5.11852794       0.82862967      -0.25461990
H        5.11164788       3.70112851       0.14496994
H        6.36381751       2.71694905      -0.42905984
