18
Properties=species:S:1:pos:R:3 atomization_energy=-1718.31 smiles=N.C.C.C.O.C.C.H.H.H.H.H.H.H.H.H.H.H pbc="F F F"
N        0.79784967       0.63845978      -0.77380970
C        2.04320920       0.19541993      -0.12594995
C        2.10581915       0.34692986       1.38889949
C        0.86009967      -0.16377994       2.10985923
O        0.65223977      -1.54776940       1.85524929
C        2.77821886      -0.96828959      -0.75049971
C        3.32900880       0.42023982      -0.88788966
H        0.81176965       0.44234981      -1.77505930
H        0.70019975       1.65151931      -0.69828972
H        2.24988919       1.40677944       1.63057934
H        2.98028876      -0.19273992       1.77492935
H       -0.03919998       0.38587985       1.81464932
H        0.98367960      -0.03943999       3.19019885
H        0.44342983      -1.60614939       0.90360965
H        2.36204918      -1.44107945      -1.63256936
H        3.30313878      -1.66080938      -0.10061996
H        4.22627831       0.66578971      -0.32993986
H        3.28740871       0.88785964      -1.86467929
