14
Properties=species:S:1:pos:R:3 atomization_energy=-1457.72 smiles=C.O.C.C.C.C.N.H.H.H.H.H.H.H pbc="F F F"
C        1.17479957       0.11134996      -0.76505973
O        2.27058919       0.16623993       0.14619994
C        3.01285893       1.33880947       0.06995997
C        2.25398907       2.63937889       0.08686996
C        4.35043815       1.22881953       0.08071997
C        5.24779775       2.32822896       0.04285998
N        5.98232747       3.22414875       0.00691000
H        0.79406969      -0.91420964      -0.77133969
H        1.49333940       0.36397986      -1.78211928
H        0.36383985       0.76994972      -0.43925983
H        1.47388946       2.61023892       0.85503967
H        1.78276928       2.82277880      -0.88380966
H        2.89080882       3.49951861       0.31375988
H        4.80037809       0.24226991       0.11206996
