11
Properties=species:S:1:pos:R:3 atomization_energy=-1208.65 smiles=N.C.O.C.C.C.N.H.H.H.H pbc="F F F"
N        0.95526962      -0.05270998      -0.13320994
C        2.23024924      -0.06843997       0.01401999
O        2.91094889       1.11770950       0.04932998
C        4.29605824       1.07543960       0.21431992
C        4.99115818      -0.05079998       0.33780986
C        4.15596847      -1.24933949       0.28162988
N        2.87833886      -1.26070954       0.13184995
H        0.68156975       0.93018965      -0.20017992
H        4.71320824       2.07253918       0.22740992
H        6.06041744      -0.11461995       0.46702983
H        4.69355820      -2.20681902       0.37819986
