14
Properties=species:S:1:pos:R:3 atomization_energy=-1340.55 smiles=C.N.C.N.C.C.H.H.H.H.H.H.H.H pbc="F F F"
C        1.10965950       0.21618991      -0.02865999
N        2.34132899       0.34899987      -0.79677966
C        3.35811874       0.77809970      -0.13492994
N        4.61687826       0.97949960      -0.66080976
C        5.76226787       0.70316975       0.21674991
C        5.39385767       2.10725921      -0.12723995
H        0.84189964      -0.84168964       0.05523998
H        0.29909988       0.72967973      -0.55436975
H        1.16648955       0.63565978       0.98216964
H        3.29091864       1.02158959       0.94242961
H        6.58329726       0.23530990      -0.30917988
H        5.51897764       0.30818989       1.19320954
H        4.88508822       2.72186901       0.60101975
H        5.95653771       2.62079898      -0.89376968
