11
Properties=species:S:1:pos:R:3 atomization_energy=-1165.21 smiles=O.C.N.C.C.C.N.H.H.H.H pbc="F F F"
O        0.62657977      -1.02382960      -0.73830971
C       -0.44433982      -1.35186950       0.03530999
N       -1.39572947      -0.56245981       0.41365985
C       -1.36207946       0.74561969       0.00942000
C       -0.29280989       1.52983937      -0.15052994
C        1.05634960       1.01559962       0.14260995
N        1.52579942      -0.17355994      -0.05274998
H       -0.44808982      -2.43003908       0.25498990
H       -2.34593909       1.18544959      -0.14533995
H       -0.38347986       2.57427894      -0.41705985
H        1.73822928       1.76479926       0.58027976
