18
Properties=species:S:1:pos:R:3 atomization_energy=-1735.84 smiles=N.C.C.C.O.C.C.H.H.H.H.H.H.H.H.H.H.H pbc="F F F"
N        0.99488960       0.03172999       0.15514994
C        2.45640895       0.01366000       0.02642999
C        2.92706882      -1.32587951      -0.54744976
C        2.61373901      -1.44260946      -2.03419921
O        3.17936879      -0.34496985      -2.75329888
C        2.61636906       0.90011966      -2.33616907
C        2.92970896       1.16325958      -0.86832964
H        0.70082975       0.90849964       0.58620979
H        0.69946975      -0.70680975       0.79406969
H        2.87953895       0.14252994       1.02982959
H        2.49023901      -2.16830924       0.00095000
H        4.01498848      -1.38726944      -0.41495982
H        3.05605879      -2.36119907      -2.43313897
H        1.53497936      -1.49024935      -2.22320920
H        3.06070876       1.68651929      -2.95436880
H        1.53780938       0.90078966      -2.53124889
H        4.01787842       1.25394946      -0.75504968
H        2.49478904       2.11816925      -0.55103980
