17
Properties=species:S:1:pos:R:3 atomization_energy=-1606.5 smiles=C.O.C.C.C.N.N.H.H.H.H.H.H.H.H.H.H pbc="F F F"
C        2.87643881       3.94734856       1.07525956
O        4.11291849       3.24313870       1.10226961
C        4.35275809       2.56297904      -0.13586994
C        5.67629760       1.81721931      -0.05155998
C        6.82305737       2.80119893      -0.06700997
N        7.18292716       3.41174872       1.09342956
N        7.45039729       3.10657879      -1.15633952
H        2.76311886       4.47836808       2.02359915
H        2.04326926       3.24774879       0.96326959
H        2.86784895       4.67844809       0.26182991
H        4.36530803       3.29023860      -0.95677963
H        3.54194862       1.84527931      -0.30705989
H        5.77885764       1.13385959      -0.90034965
H        5.73254779       1.23323949       0.87392962
H        6.41198755       3.57610847       1.73840932
H        7.75199673       4.23599836       0.93036963
H        7.07713728       2.57842904      -1.95071920
