16
Properties=species:S:1:pos:R:3 atomization_energy=-1585.4 smiles=C.N.C.C.C.C.O.H.H.H.H.H.H.H.H.H pbc="F F F"
C        2.49259906      -0.42394982      -1.70618927
N        2.24641914       0.20769991      -0.41583983
C        3.25110884       1.25550950      -0.17707992
C        2.68902885       2.60755891      -0.70313972
C        2.99429870       3.29825870       0.64956973
C        3.17665875       1.88769922       1.24392951
O        3.23996867       1.44890942       2.37235918
H        1.72243927      -1.17816958      -1.89481925
H        3.46638853      -0.92413964      -1.72773937
H        2.44725892       0.30363988      -2.52305898
H        2.25348921      -0.51086980       0.31195987
H        4.28024818       1.01948962      -0.46920982
H        1.61993942       2.61762895      -0.95117964
H        3.23606863       3.02414873      -1.55544935
H        3.91306835       3.89056848       0.66655976
H        2.16781921       3.86804841       1.07821954
