18
Properties=species:S:1:pos:R:3 atomization_energy=-1711.91 smiles=N.C.C.C.C.O.C.H.H.H.H.H.H.H.H.H.H.H pbc="F F F"
N        0.86727969       0.09837996      -0.22710991
C        2.31281910      -0.06578997      -0.28081990
C        3.00662887       1.20483949       0.20786992
C        4.51745823       1.02476959       0.17391993
C        5.20439778       1.07977957      -1.19712950
O        6.12995741       2.09160911      -0.73294969
C        5.34793793       2.27978919       0.47092980
H        0.41538983      -0.74326973      -0.58200974
H        0.57967977       0.85733967      -0.84418968
H        2.61704909      -0.29822987      -1.30650943
H        2.60220898      -0.91587963       0.34581986
H        2.69122893       1.42637939       1.23585945
H        2.70670894       2.06064921      -0.41087985
H        4.84560796       0.16774993       0.77612969
H        4.60109797       1.45339940      -2.02999916
H        5.72032789       0.16316993      -1.49564937
H        5.96739754       2.22512919       1.37024944
H        4.81445818       3.23510876       0.44686983
