16
Properties=species:S:1:pos:R:3 atomization_energy=-1559.34 smiles=C.O.N.C.C.C.C.H.H.H.H.H.H.H.H.H pbc="F F F"
C        1.89556930      -0.77261970      -0.66641972
O        3.22410864      -0.51036981      -0.23075991
N        3.45904872       0.86927967      -0.33406987
C        4.66586837       1.11434958       0.05770997
C        5.21122788       2.48606898       0.06414997
C        6.46722740       2.70907884       0.47460980
C        7.09238717       4.06571841       0.51062980
H        1.71129936      -1.84716927      -0.58660974
H        1.77252930      -0.47018980      -1.71091934
H        1.17732957      -0.24342991      -0.03262999
H        5.34053806       0.31061987       0.40338984
H        4.55003823       3.27551861      -0.27404988
H        7.09533744       1.88511926       0.80566967
H        6.40723767       4.84685801       0.16614993
H        7.98023691       4.08389838      -0.12881995
H        7.39924722       4.30723854       1.53288942
