18
Properties=species:S:1:pos:R:3 atomization_energy=-1733.09 smiles=C.N.C.C.C.C.O.H.H.H.H.H.H.H.H.H.H.H pbc="F F F"
C        2.94487887      -1.17465953       0.95354960
N        2.78631895       0.17418993       1.48167942
C        3.14164880       1.20730956       0.48872981
C        2.70568902       2.57336903       1.00946961
C        4.65874809       1.22629950       0.25852990
C        5.12328792       1.20881951      -1.17380955
O        5.46423791       1.22051948       1.19238959
H        2.64099886      -1.89857924       1.71486934
H        3.98250840      -1.39175942       0.68295972
H        2.30742905      -1.33188953       0.07782997
H        3.40855875       0.29020990       2.28765915
H        2.62715899       1.00982963      -0.45872984
H        3.18923873       2.81689898       1.96310917
H        1.62124940       2.60804894       1.16002949
H        2.97365876       3.36201877       0.29856989
H        4.61315839       1.99273917      -1.73771932
H        4.90952802       0.22985991      -1.60950930
H        6.19967754       1.39319947      -1.21351956
