13
Properties=species:S:1:pos:R:3 atomization_energy=-1346.56 smiles=C.N.C.C.O.C.N.H.H.H.H.H.H pbc="F F F"
C        0.96669959      -0.04122998      -0.12906994
N        2.40160917       0.03760999       0.10128996
C        3.14020875      -1.21144956       0.04289998
C        3.11178868       1.24412948       0.13701994
O        4.33711809       1.29207948       0.22238992
C        2.37470914       2.50524893       0.06145998
N        1.75411934       3.48866862      -0.00544000
H        0.45712983       0.89085966       0.12127995
H        0.54860979      -0.84122964       0.48906980
H        0.79729971      -0.26883990      -1.18555949
H        2.68400897      -1.92838927       0.73171970
H        4.18978843      -1.07967953       0.31805989
H        3.08765874      -1.60053931      -0.97826961
