11
Properties=species:S:1:pos:R:3 atomization_energy=-1160.48 smiles=N.C.C.C.C.C.H.H.H.H.H pbc="F F F"
N        1.01488962      -0.01958999       0.01901999
C        2.46999901       0.00000000       0.00000000
C        2.95201883       1.36116943       0.00000000
C        3.34929875       2.48306901       0.00000000
C        3.86150849       3.92724835      -0.00080000
C        4.26212827       5.05729824      -0.00098000
H        0.69357971      -0.98198960      -0.05846998
H        0.66628977       0.46715981      -0.80529969
H        2.82784889      -0.53262977      -0.88747962
H        2.84542881      -0.53851982       0.87609967
H        4.61683839       6.06190770       0.00046000
