16
Properties=species:S:1:pos:R:3 atomization_energy=-1572.1 smiles=N.C.C.O.C.C.C.H.H.H.H.H.H.H.H.H pbc="F F F"
N        0.93239963      -0.02686999      -0.37397984
C        2.36636909      -0.06986998      -0.03138999
C        3.28427879      -0.89088963      -0.90229967
O        2.64301902      -1.51337942      -2.03346922
C        3.36178865       0.61482977      -0.93737965
C        4.51277799       1.29321952      -0.33074988
C        5.77808753       1.22319949      -0.76400971
H        0.52723979       0.85611964      -0.06003997
H        0.43253984      -0.75539973       0.13850994
H        2.57921908      -0.07951997       1.03536959
H        4.08566848      -1.43895949      -0.41894984
H        1.72161932      -1.18805958      -2.08059915
H        2.97842883       1.10701961      -1.82596928
H        4.30428828       1.92215921       0.53375978
H        6.04250747       0.62247976      -1.62910939
H        6.57188734       1.76738931      -0.26358990
