12
Properties=species:S:1:pos:R:3 atomization_energy=-1275.11 smiles=C.O.C.N.C.C.O.H.H.H.H.H pbc="F F F"
C        3.31575863      -1.04904960       0.51255979
O        2.45830901       0.05020998       0.24639989
C        3.05463867       1.23018957       0.13390994
N        2.44753900       2.36825905      -0.10959995
C        3.47734854       3.27415879      -0.13063995
C        4.67028821       2.63431889       0.10351996
O        4.41038802       1.30741946       0.27691990
H        2.69969893      -1.95080928       0.58020980
H        3.83397839      -0.92187963       1.46926940
H        4.03605839      -1.19268948      -0.30018989
H        3.30630882       4.32601855      -0.31115989
H        5.70383754       2.93948882       0.17484993
