13
Properties=species:S:1:pos:R:3 atomization_energy=-1350.88 smiles=N.C.C.N.C.C.O.H.H.H.H.H.H pbc="F F F"
N        2.60597906      -0.58784976      -1.32989953
C        2.38458917       0.06150997      -0.03222999
C        2.83140878       1.48735940      -0.01240999
N        2.13725912       2.57750903       0.25882989
C        3.05454884       3.58867860       0.13684995
C        4.28214823       3.07056885      -0.18855993
O        4.15852837       1.71763930      -0.28065989
H        2.41499913      -1.58244942      -1.23747954
H        3.59379865      -0.50003981      -1.56656934
H        2.92651874      -0.48978979       0.74400969
H        1.31841946       0.01139000       0.21081991
H        2.78463893       4.62407828       0.29026989
H        5.26267772       3.48114865      -0.37555984
