14
Properties=species:S:1:pos:R:3 atomization_energy=-1416.11 smiles=N.C.O.C.O.C.C.H.H.H.H.H.H.H pbc="F F F"
N        1.69965931      -0.62191978       0.67447975
C        2.87731894      -0.46124980      -0.00543000
O        3.47095875      -1.42962941      -0.47106981
C        3.34229858       1.01572958      -0.14590995
O        2.69738884       1.84290929       0.82392968
C        4.84051794       1.13369961      -0.03286999
C        5.52859802       2.06146916       0.64898975
H        1.14204950       0.18871992       0.91782965
H        1.29656947      -1.54671945       0.73052971
H        3.02362893       1.35390947      -1.13762954
H        3.07389887       1.57884942       1.68284938
H        5.40621787       0.38180984      -0.58329978
H        5.03802821       2.86329891       1.19215959
H        6.61475742       2.05268916       0.65014971
