18
Properties=species:S:1:pos:R:3 atomization_energy=-1723.89 smiles=N.C.C.C.C.C.O.H.H.H.H.H.H.H.H.H.H.H pbc="F F F"
N        2.69189887      -0.57157975       1.29191951
C        2.31513903       0.07674996       0.04097999
C        2.73229887       1.52093939       0.05218998
C        1.82651923       2.51773907       0.06891997
C        4.21881838       1.82027933      -0.03388999
C        4.90205800       1.91722929       1.33242953
O        5.12219784       0.63397976       1.90636921
H        2.52496912      -1.57427932       1.19420953
H        2.03875922      -0.26335990       2.01467925
H        1.23422952      -0.03019999      -0.10828996
H        2.79865896      -0.43476982      -0.79973970
H        0.76059971       2.31876907       0.10888996
H        2.13126928       3.55987852       0.05580998
H        4.35976835       2.77256892      -0.55965975
H        4.70746821       1.05256956      -0.64720974
H        4.32142813       2.52395904       2.03483925
H        5.88440781       2.38735901       1.21673955
H        4.28216842       0.13131995       1.79069930
