18
Properties=species:S:1:pos:R:3 atomization_energy=-1707.74 smiles=C.N.C.C.O.C.C.H.H.H.H.H.H.H.H.H.H.H pbc="F F F"
C        1.19001957      -0.22903991      -0.45068984
N        2.64121889      -0.09855996      -0.48260981
C        3.07548881       1.05053962       0.31318987
C        4.56936832       1.10245961       0.28612989
O        5.17445817       1.62758934       1.47948945
C        5.39128793       0.23734991       1.20575949
C        6.79301734      -0.11918995       0.86713964
H        0.89045966      -1.10067954      -1.04007960
H        0.69899972       0.65146972      -0.87663967
H        0.82774966      -0.38296983       0.57113975
H        2.94027887       0.02917999      -1.44834937
H        2.71641890       0.95477965       1.34553952
H        2.67448902       1.98284917      -0.10027996
H        4.97787799       1.41130941      -0.66589973
H        4.89308813      -0.49949982       1.82096933
H        7.31293731       0.69669972       0.35319986
H        6.81068708      -0.99833960       0.21513992
H        7.35229695      -0.35819986       1.77722935
