18
Properties=species:S:1:pos:R:3 atomization_energy=-1784.66 smiles=C.C.C.C.C.N.C.H.H.H.H.H.H.H.H.H.H.H pbc="F F F"
C        1.47349948      -0.18180992      -0.44064983
C        2.83725883       0.08197996       0.11514996
C        3.64039869      -1.07874956       0.66236974
C        4.04798836      -0.39398983      -0.61670977
C        5.04419821       0.71815974      -0.62677974
N        4.23549824       1.89721930      -0.29977988
C        3.13205870       1.48203937       0.57718977
H        1.16476954       0.62070978      -1.12137954
H        0.74100972      -0.24060990       0.37288986
H        1.43356944      -1.12409954      -0.99759963
H        3.22425877      -2.07722914       0.58848979
H        4.24069828      -0.92086961       1.55100933
H        3.93707843      -0.90178964      -1.56315934
H        5.82380793       0.55530981       0.12569995
H        5.51416770       0.83750965      -1.60702939
H        4.80485798       2.60649886       0.15408994
H        3.44480866       1.49077937       1.62742936
H        2.28179901       2.16021925       0.45869981
