16
Properties=species:S:1:pos:R:3 atomization_energy=-1628.19 smiles=C.C.C.C.C.C.H.H.H.H.H.H.H.H.H.H pbc="F F F"
C        0.97427962       0.01445999      -0.04342999
C        2.49742893      -0.00333000      -0.00502000
C        3.05626873      -1.27490948       0.64988975
C        3.38881862      -0.90015965       2.09545918
C        3.52781857       0.58408977       2.02697926
C        3.04050888       1.07565963       0.88352963
H        0.59656976      -0.80110966      -0.66954976
H        0.60537978       0.95783961      -0.46138982
H        0.53936980      -0.10186996       0.95613965
H        2.89205887       0.09897996      -1.02162958
H        3.97985841      -1.57213943       0.13482994
H        2.37226909      -2.12860920       0.59515979
H        4.31303812      -1.38295949       2.42583902
H        2.57884891      -1.17445956       2.77941895
H        3.94393855       1.18229949       2.82607879
H        3.01321875       2.12693928       0.62972974
