10
Properties=species:S:1:pos:R:3 atomization_energy=-1042.24 smiles=C.N.N.C.C.C.H.H.H.H pbc="F F F"
C        1.42680949      -0.21884991      -0.54872977
N        2.68312884      -0.18069993      -0.25575990
N        3.14587888       1.13375954      -0.26844989
C        4.39819841       1.17815949       0.02296999
C        4.91605784       2.51681907       0.02103999
C        5.35512785       3.63511866       0.02095999
H        0.90125963      -1.18529958      -0.58313974
H        0.83224968       0.68341972      -0.77272971
H        5.04899806       0.32134988       0.25598990
H        5.73564793       4.63003834       0.01848999
