15
Properties=species:S:1:pos:R:3 atomization_energy=-1493.39 smiles=C.N.C.C.C.N.O.H.H.H.H.H.H.H.H pbc="F F F"
C        1.04994960      -0.00046000      -0.23438990
N        2.49420893       0.06430998      -0.02437999
C        3.21381882      -1.11065962       0.17164993
C        2.72618892      -2.35411916       0.08775997
C        3.04849870       1.34068946       0.06957998
N        4.40703807       1.40832951       0.13263995
O        2.41161915       2.39043896       0.08840997
H        0.61024977       0.98714959      -0.40049985
H        0.57710978      -0.44026982       0.64987972
H        0.83708964      -0.60982977      -1.11876955
H        4.26128851      -0.99909962       0.44052981
H        1.69502929      -2.57703894      -0.15790994
H        3.37506859      -3.20460873       0.27487989
H        4.90747807       0.79361972      -0.49187979
H        4.73967829       2.36438905       0.11615996
