14
Properties=species:S:1:pos:R:3 atomization_energy=-1412.14 smiles=C.N.C.C.O.C.O.H.H.H.H.H.H.H pbc="F F F"
C        1.00305958       0.00474000      -0.04736998
N        2.43547909       0.18258993       0.09342996
C        3.29774874      -0.98882961       0.01936999
C        3.56838864      -1.44109938      -1.40700943
O        2.80825890      -1.27329948      -2.35746911
C        3.00856879       1.43384941       0.00621000
O        4.21241826       1.65467938      -0.03862998
H        0.48032980       0.95812960       0.07201997
H        0.65556973      -0.69228973       0.72030973
H        0.77687968      -0.39613985      -1.03833959
H        2.85165887      -1.81548933       0.58053978
H        4.26682819      -0.75268969       0.47235982
H        4.48670813      -2.04049917      -1.53158941
H        2.26920919       2.25157906       0.00588000
