12
Properties=species:S:1:pos:R:3 atomization_energy=-1298.63 smiles=O.C.C.C.N.C.O.H.H.H.H.H pbc="F F F"
O        1.15583953      -0.07522997       0.45285982
C        2.32246900       0.01207000       0.12232995
C        3.12555865       1.27244950       0.00524000
C        4.34978815       0.78577972      -0.76245971
N        4.44228824      -0.63166973      -0.54754981
C        3.23467879      -1.17465953      -0.18066992
O        2.93961877      -2.34588912      -0.11792995
H        3.39598861       1.61010935       1.00997958
H        2.58622910       2.05325918      -0.53424981
H        4.22838830       0.95111965      -1.83858924
H        5.27206797       1.27137949      -0.43257983
H        5.15791786      -1.23530949      -0.93655963
