16
Properties=species:S:1:pos:R:3 atomization_energy=-1551.14 smiles=C.O.C.O.C.C.N.H.H.H.H.H.H.H.H.H pbc="F F F"
C        1.94089922      -0.01265000       0.48266979
O        3.35230856       0.18729992       0.56404975
C        3.80095858       1.25431950      -0.15904994
O        3.09985870       1.97415926      -0.86109965
C        5.32457811       1.38702946      -0.02085999
C        5.99914787       0.50606980      -1.06472953
N        5.73145772       2.79651894      -0.18775993
H        1.68892930      -0.89182963       1.08135955
H        1.63802930      -0.20054992      -0.55202976
H        1.40856947       0.85063964       0.89306964
H        5.61585771       1.07450964       0.98741959
H        5.71793781       0.80238968      -2.08225923
H        5.70458797      -0.54218979      -0.93825965
H        7.09015707       0.55945978      -0.98242960
H        5.23536791       3.18072886      -0.99602963
H        6.72394721       2.84939899      -0.40546984
