14
Properties=species:S:1:pos:R:3 atomization_energy=-1471.43 smiles=C.O.C.C.N.C.C.H.H.H.H.H.H.H pbc="F F F"
C        3.03417890      -1.14526950       0.51070979
O        2.31330912       0.06045998       0.29704987
C        3.09425872       1.15664952       0.18229993
C        2.54116904       2.39709900      -0.02683999
N        3.56307859       3.30637872      -0.10134996
C        4.76149788       2.65859896       0.05805998
C        4.49981826       1.31625951       0.23688991
H        2.30887919      -1.96096927       0.58812978
H        3.59771862      -1.10834953       1.44927946
H        3.69637863      -1.36531952      -0.33363986
H        1.51051937       2.70687902      -0.12832995
H        3.44994864       4.30076826      -0.25076989
H        5.69389771       3.20576870       0.03072999
H        5.24975785       0.55222980       0.38827986
