15
Properties=species:S:1:pos:R:3 atomization_energy=-1477.67 smiles=N.C.C.C.C.C.H.H.H.H.H.H.H.H.H pbc="F F F"
N        1.07757962      -0.08414996       0.20640992
C        2.41712905       0.14695995      -0.31783989
C        2.55970908      -0.60630974      -1.60766931
C        3.47799854      -1.55403945      -1.84548925
C        2.59608894       1.62156935      -0.53251982
C        3.55189855       2.36922901       0.03594998
H        1.00531958       0.38287985       1.10835962
H        0.98093959      -1.07892960       0.40118985
H        3.14561873      -0.21910991       0.41664984
H        1.85381933      -0.35581987      -2.39770914
H        4.20508828      -1.84671923      -1.09527953
H        3.51545863      -2.05728916      -2.80651883
H        1.88414929       2.10507919      -1.19974959
H        4.28744819       1.94241927       0.70991973
H        3.61399853       3.43409871      -0.16781993
