15
Properties=species:S:1:pos:R:3 atomization_energy=-1450.73 smiles=N.N.C.C.C.O.C.H.H.H.H.H.H.H.H pbc="F F F"
N        1.12793952       0.07252997       0.47483980
N        2.30111900       0.08568997      -0.19545992
C        2.96651879       1.20012947      -0.13577995
C        2.59657897       2.44736894       0.59368978
C        3.46263864       3.41567878      -0.18022993
O        4.66698822       2.70670894      -0.50384978
C        4.29127808       1.35619951      -0.82977967
H        0.77611972      -0.88839963       0.51538981
H        0.40797984       0.58465978      -0.04174999
H        2.92858886       2.35230919       1.63189941
H        1.53730938       2.70174887       0.54693979
H        2.98197888       3.72553853      -1.11630957
H        3.70744865       4.31070809       0.39848985
H        4.18018823       1.25141946      -1.91171926
H        5.03700778       0.66286973      -0.43584983
