12
Properties=species:S:1:pos:R:3 atomization_energy=-1248.57 smiles=C.O.C.N.O.C.C.H.H.H.H.H pbc="F F F"
C        3.08140875      -1.16932954       0.53278982
O        2.35529906       0.01477999       0.24347990
C        3.12662878       1.11558954       0.11602995
N        2.47824898       2.24823920      -0.15596994
O        3.46531864       3.21983869      -0.23853991
C        4.67544838       2.64770885      -0.01493999
C        4.51725838       1.30584945       0.21680991
H        2.36505898      -1.99256922       0.61448976
H        3.60754869      -1.08798955       1.49034940
H        3.78020862      -1.41341941      -0.27495988
H        5.52170787       3.31742881      -0.05564998
H        5.29488781       0.58868977       0.42486982
