12
Properties=species:S:1:pos:R:3 atomization_energy=-1320.33 smiles=N.C.O.C.C.C.C.H.H.H.H.H pbc="F F F"
N        1.30180950      -0.14887994      -0.84815967
C        2.53329908      -0.14639994      -0.27394990
O        3.00590871      -1.14457950       0.25049990
C        3.22610861       1.15604960      -0.34689987
C        4.44825840       1.28311945       0.18480992
C        5.14813800       2.51844889       0.13558995
C        5.74363775       3.55892849       0.09693996
H        0.88016965       0.65462973      -1.28961951
H        0.78230966      -1.01692960      -0.82652971
H        2.72637892       1.98397924      -0.83202964
H        4.93748783       0.44120981       0.66928973
H        6.27625756       4.48104835       0.06495997
