15
Properties=species:S:1:pos:R:3 atomization_energy=-1451.52 smiles=C.N.N.C.C.C.O.H.H.H.H.H.H.H.H pbc="F F F"
C        1.48664947      -0.47809983      -0.95464964
N        2.82691880      -0.31891986      -0.39723983
N        3.24808869       0.95905963      -0.25975990
C        4.52328809       1.12885952      -0.05922998
C        5.59426774       0.07213997       0.00851000
C        4.98634824       2.56329900       0.06655997
O        6.15888769       2.83661892       0.26902991
H        1.24890952      -1.54206936      -1.04909956
H        1.42770943      -0.03019999      -1.95219925
H        0.73475973      -0.01096000      -0.31075989
H        2.85342897      -0.81110968       0.50048981
H        5.18452821      -0.93063962       0.13776995
H        6.25826735       0.27410990       0.85325966
H        6.17572778       0.09904996      -0.91694965
H        4.18790831       3.31429864      -0.03818998
