15
Properties=species:S:1:pos:R:3 atomization_energy=-1499.81 smiles=N.C.C.C.C.C.H.H.H.H.H.H.H.H.H pbc="F F F"
N        0.99733961      -0.00731000       0.07261998
C        2.46259914      -0.00907999      -0.04247999
C        2.96723895      -1.23231949      -0.83439966
C        3.34724856      -0.66682975      -2.16500925
C        3.34934872       0.66946971      -2.15749911
C        2.97115892       1.22139948      -0.82071965
H        0.69588974       0.80776969       0.60398975
H        0.69301972      -0.82808968       0.59333979
H        2.87406891      -0.01546999       0.97324961
H        2.20630906      -2.01300919      -0.93537960
H        3.84659849      -1.67400934      -0.35191988
H        3.59880869      -1.27712949      -3.02061887
H        3.60287854       1.28849953      -3.00637881
H        3.85213843       1.65452936      -0.33327988
H        2.21311923       2.00564919      -0.91258961
