16
Properties=species:S:1:pos:R:3 atomization_energy=-1580.58 smiles=C.N.C.C.C.C.O.H.H.H.H.H.H.H.H.H pbc="F F F"
C        1.70122932      -0.37129986       1.52076945
N        3.06584874       0.09882996       1.33773946
C        3.11839874       1.44001941       0.73778972
C        2.91849890       2.49860909       1.78403926
C        2.14745911       3.58333852       1.63201940
C        4.50145841       1.65837931       0.11071996
O        5.25075809       0.75158972      -0.25129990
H        1.72064936      -1.38686949       1.92622919
H        1.15216950      -0.39958986       0.57465977
H        1.15480952       0.25340990       2.23424920
H        3.57301867      -0.54135980       0.71908970
H        2.39846916       1.54067939      -0.08442997
H        3.43791875       2.35046919       2.72990904
H        1.60261940       3.78013848       0.71431970
H        2.04302917       4.30480808       2.43932916
H        4.75402837       2.70842884      -0.12084996
