13
Properties=species:S:1:pos:R:3 atomization_energy=-1282.81 smiles=N.N.C.C.C.C.O.H.H.H.H.H.H pbc="F F F"
N        1.05490961       0.04012998      -0.05647998
N        2.40848898      -0.00662000      -0.01305999
C        2.95709877       1.15992957      -0.03632999
C        4.39040843       1.10055956       0.00000000
C        5.58056767       1.10055956       0.00000000
C        7.02456709       1.10055956       0.00000000
O        7.50881702       2.43425906      -0.06491997
H        0.69255972      -0.90874963      -0.18209993
H        0.67106974       0.34729988       0.84005964
H        2.44187896       2.13102906      -0.09011996
H        7.42657722       0.54870978      -0.85445968
H        7.42099716       0.64274972       0.91142965
H        7.11073721       2.83781901      -0.85448965
