14
Properties=species:S:1:pos:R:3 atomization_energy=-1361.75 smiles=C.O.C.C.O.N.C.H.H.H.H.H.H.H pbc="F F F"
C        2.24115904      -0.41088985      -1.59168942
O        2.26525920       0.11381996      -0.27105988
C        3.14752887       1.20712952      -0.13264994
C        3.34630863       1.56226936       1.32504947
O        3.56343866       2.97877882       1.34281952
N        2.86994885       3.52519862       0.23368991
C        2.62341894       2.53907898      -0.56121979
H        1.54109940      -1.25048949      -1.61428934
H        3.23215876      -0.77718967      -1.87658932
H        1.89942921       0.34524988      -2.30422898
H        4.10432838       1.02403960      -0.63497975
H        4.21595846       1.05449958       1.75231933
H        2.47216906       1.32683950       1.94292923
H        2.12137916       2.66257898      -1.53020941
