14
Properties=species:S:1:pos:R:3 atomization_energy=-1384.73 smiles=N.C.C.O.C.C.O.H.H.H.H.H.H.H pbc="F F F"
N        2.91648882      -1.05983960      -0.56233976
C        2.42305909       0.17505993       0.06756998
C        3.36518855       1.39560949      -0.06674997
O        3.37576855       1.88024926      -1.43292940
C        3.00777874       3.19022862      -1.24620945
C        2.76634895       3.48892853       0.01228999
O        2.93453883       2.42613904       0.86521966
H        2.24135913      -1.80727923      -0.40677985
H        3.78319850      -1.35394947      -0.11460995
H        2.24050903      -0.02593999       1.12962951
H        1.45280945       0.42022983      -0.37986985
H        4.39176850       1.11700953       0.20534992
H        2.95209882       3.80397848      -2.12697915
H        2.45685911       4.41853832       0.45449982
