16
Properties=species:S:1:pos:R:3 atomization_energy=-1496.68 smiles=C.O.C.C.C.N.O.H.H.H.H.H.H.H.H.H pbc="F F F"
C        1.38358943      -0.28434988      -0.18502992
O        2.75293881      -0.04869998       0.11784996
C        3.12118877       1.31102943      -0.12519995
C        4.59174808       1.48706947       0.21048993
C        5.42596784       0.79125966      -0.82594966
N        6.22575749       1.46204944      -1.59089937
O        6.87625738       0.57082976      -2.45290912
H        1.16509958      -1.33752952       0.01028999
H        1.18311957      -0.07560997      -1.24012953
H        0.74014971       0.33074988       0.45098983
H        2.51956898       1.96099918       0.52055979
H        2.92343879       1.56530932      -1.17324950
H        4.82678809       1.03731961       1.18032954
H        4.85230786       2.54987902       0.23254991
H        5.32609815      -0.30713988      -0.90311962
H        7.46733729       1.16085954      -2.95659890
