18
Properties=species:S:1:pos:R:3 atomization_energy=-1731.14 smiles=N.C.C.C.C.O.C.H.H.H.H.H.H.H.H.H.H.H pbc="F F F"
N        2.10299922      -0.29249987      -1.49188938
C        2.39352901       0.06361998      -0.10790996
C        3.10710869       1.40746943      -0.02355999
C        2.31171919       2.59582904      -0.52742980
C        3.03097883       3.75156852       0.13559994
O        3.54808859       3.26217861       1.38257948
C        3.39881876       1.83463925       1.40527945
H        1.66111937      -1.21089947      -1.52043940
H        2.97259872      -0.38012985      -2.01673915
H        3.01637869      -0.71687972       0.34269988
H        1.45254942       0.09390997       0.45291981
H        4.05568850       1.36140952      -0.57737978
H        1.27605948       2.54672891      -0.16898993
H        2.29205905       2.68582904      -1.61730937
H        3.87970839       4.08870832      -0.46734982
H        2.37238895       4.60491826       0.31992988
H        4.31299825       1.38041940       1.79837925
H        2.57315909       1.59834933       2.08525920
