13
Properties=species:S:1:pos:R:3 atomization_energy=-1312.4 smiles=N.C.C.O.N.C.C.H.H.H.H.H.H pbc="F F F"
N        1.69746933       1.52999935      -2.00395920
C        2.56084911       1.98022921      -1.13731955
C        3.04287878       3.41126853      -1.40419948
O        3.86926844       3.98283845      -0.71189972
N        2.95991882       1.17049960      -0.08593996
C        4.35077829       1.21897950       0.37661985
C        3.24578869       1.76639929       1.22168953
H        1.46698946       0.57381976      -1.70326929
H        2.57179903       3.87782852      -2.28459912
H        5.01329823       1.89259924      -0.14545995
H        4.74875818       0.24306991       0.61607976
H        2.88119878       1.16867954       2.04687924
H        3.11416867       2.83544886       1.31066949
