15
Properties=species:S:1:pos:R:3 atomization_energy=-1402.97 smiles=C.C.C.C.O.H.H.H.H.H.H.H.H.H.H pbc="F F F"
C        0.92705961      -0.04922998       0.03069999
C        2.44416912       0.03387999       0.06571997
C        2.98141870       1.46666938       0.02150999
C        2.59919893       2.29879907       1.23799947
O        4.40574816       1.41446948      -0.06053998
H        0.60931974      -1.09544960      -0.02466999
H        0.52527981       0.47311981      -0.84311966
H        0.48083982       0.38482987       0.93015963
H        2.85280899      -0.52370980      -0.78673971
H        2.82032892      -0.48028981       0.95924964
H        2.62756903       1.96761921      -0.88586962
H        2.93108897       1.81598932       2.16398908
H        1.51938945       2.46228903       1.29572946
H        3.09242881       3.27650876       1.20028957
H        4.73506820       0.97551964       0.74242972
