16
Properties=species:S:1:pos:R:3 atomization_energy=-1533.46 smiles=C.N.C.C.O.C.O.H.H.H.H.H.H.H.H.H pbc="F F F"
C        3.49229866      -1.24191956      -1.16273953
N        3.24545863      -0.50660979       0.07295997
C        3.45674872       0.94014961      -0.09729997
C        4.93654815       1.31115951      -0.04814998
O        5.82588765       0.52039978       0.28276988
C        5.26583792       2.76575900      -0.35961986
O        6.66498748       2.99533881      -0.42487982
H        3.30544863      -2.30652898      -0.99153958
H        4.52524820      -1.13439958      -1.50704944
H        2.81435901      -0.91500966      -1.95759927
H        3.90894853      -0.84126970       0.77908972
H        2.96609891       1.45963942       0.73240970
H        3.01491870       1.29764945      -1.03333958
H        4.84667785       3.39742867       0.42839984
H        4.82958796       3.03869891      -1.32394943
H        7.08853710       2.25462924       0.05551998
