13
Properties=species:S:1:pos:R:3 atomization_energy=-1345.19 smiles=C.N.N.C.C.C.O.H.H.H.H.H.H pbc="F F F"
C        0.97970960       0.04115999       0.05237998
N        2.38270905       0.03398999      -0.27204991
N        3.18322870       1.10803954       0.15707994
C        4.46573840       0.61390977       0.21623990
C        4.54560831      -0.70590975       0.01910999
C        3.14995883      -1.13167957      -0.21958992
O        2.78657886      -2.29044917      -0.30269989
H        0.56587978       1.03834962      -0.11479996
H        0.84926967      -0.25646990       1.09658963
H        0.46510981      -0.68277974      -0.58458976
H        3.10481878       1.93934928      -0.43306983
H        5.28477790       1.29698947       0.39329984
H        5.39491797      -1.35985945       0.01898999
