18
Properties=species:S:1:pos:R:3 atomization_energy=-1790.94 smiles=C.C.C.C.C.C.N.H.H.H.H.H.H.H.H.H.H.H pbc="F F F"
C        1.02194960      -0.01382000      -0.00931000
C        2.53823897      -0.01939999       0.08039997
C        3.08840867       1.16457953       0.87049969
C        4.43880809       0.63982975       1.24287956
C        5.55305801       1.37171952       1.36597949
C        4.35797832      -0.85458963       1.31599948
N        3.02135870      -1.20097957       0.80911967
H        0.66236974      -0.87292964      -0.58629975
H        0.66751976       0.89682963      -0.50436981
H        0.55777976      -0.05791998       0.98272963
H        2.96159884      -0.01762999      -0.93306964
H        2.50082910       1.36019946       1.77572924
H        3.13378868       2.07433918       0.26354989
H        6.50919766       0.90841965       1.58915942
H        5.53398782       2.45049910       1.24710951
H        5.13467815      -1.31965942       0.69898975
H        4.45430830      -1.20618959       2.34884897
H        3.08589873      -1.99912920       0.18033993
