12
Properties=species:S:1:pos:R:3 atomization_energy=-1183.71 smiles=N.N.C.C.C.C.H.H.H.H.H.H pbc="F F F"
N        0.88468966       0.21320991       0.28710989
N        2.21069912      -0.04787998       0.23867990
C        2.92471886       1.00457962      -0.01399000
C        4.42350824       0.92102965      -0.09894996
C        4.89594805       1.37262943      -1.41507949
C        5.28779780       1.74060927      -2.48904901
H        0.39285984      -0.61190973       0.64175976
H        0.50784981       0.35137986      -0.65486976
H        2.47229901       2.00446917      -0.15480994
H        4.74843822      -0.10633996       0.09496996
H        4.83606833       1.56333937       0.68594972
H        5.63867753       2.06289924      -3.44356870
