16
Properties=species:S:1:pos:R:3 atomization_energy=-1548.81 smiles=C.N.O.C.C.C.C.H.H.H.H.H.H.H.H.H pbc="F F F"
C        1.49660936       2.10465918       1.18095948
N        2.68114905       2.18982906       0.67910971
O        3.24490881       0.90640964       0.64803972
C        4.57737832       1.01258962       0.10230996
C        5.66863784       1.58208935       1.04413961
C        6.63342741       0.53695978       0.45443982
C        5.39457783      -0.30302988       0.09325996
H        0.87976964       3.00955894       1.28984951
H        1.05306962       1.15183958       1.51680936
H        4.56630805       1.49268940      -0.88635965
H        5.45703789       1.44222945       2.11043921
H        5.94716764       2.62467908       0.87003969
H        7.19189704       0.89566967      -0.41772982
H        7.32952708       0.07889997       1.16127954
H        5.44605795      -0.82122968      -0.86792963
H        5.09895814      -1.01880959       0.86888969
