12
Properties=species:S:1:pos:R:3 atomization_energy=-1287.52 smiles=N.C.O.C.C.C.O.H.H.H.H.H pbc="F F F"
N        1.31226952      -0.25988990       0.04570998
C        2.66888903      -0.20069991       0.04184998
O        3.36816859      -1.20198953       0.08156997
C        3.20866874       1.17157958      -0.01253000
C        4.53624833       1.34516948      -0.00446000
C        5.09555822       2.71041897      -0.05747998
O        4.40345850       3.71922848      -0.11176996
H        0.71101971       0.55056977       0.01845999
H        0.88539966      -1.17594958       0.08460997
H        2.51933911       2.00536923      -0.05778998
H        5.23952784       0.52248978       0.04057999
H        6.19697760       2.75671898      -0.04395998
