13
Properties=species:S:1:pos:R:3 atomization_energy=-1326.99 smiles=C.N.C.C.O.C.N.H.H.H.H.H.H pbc="F F F"
C        0.94594963       0.02442999       0.21616992
N        2.39877902       0.05991998       0.36942987
C        2.96069877       1.38567949       0.00000000
C        2.50500896       2.42674893       1.00737962
O        1.69343935       3.31487875       0.74522971
C        4.40469846       1.38567949       0.00000000
N        5.55570799       1.38567949       0.00000000
H        0.58785979      -0.98913960       0.42314984
H        0.64017973       0.28605990      -0.80185965
H        0.44782982       0.69163972       0.92629965
H        2.80343887      -0.64402973      -0.25140990
H        2.59822896       1.67833934      -0.99272958
H        2.90524898       2.31854904       2.03136919
