9
Properties=species:S:1:pos:R:3 atomization_energy=-1059.16 smiles=N.C.C.N.O.C.C.H.H pbc="F F F"
N        0.93224962       0.10645996       0.00028000
C        2.09428913       0.07602997       0.00049000
C        3.51992868      -0.01458999       0.00075000
N        4.25486820       1.10313952       0.00075000
O        5.57365783       0.67066973       0.00103000
C        5.60176803      -0.68648971       0.00120000
C        4.32039811      -1.17390948       0.00103000
H        6.58556723      -1.13318952       0.00142000
H        4.01145836      -2.20825908       0.00110000
