12
Properties=species:S:1:pos:R:3 atomization_energy=-1308.59 smiles=O.C.C.C.N.C.C.H.H.H.H.H pbc="F F F"
O        1.19889948      -0.21571991       0.43685984
C        2.37144902      -0.04375999       0.21827991
C        3.32672873       1.13744950      -0.00795000
C        4.26000818       0.07065997      -0.61905973
N        3.36280856      -0.94000963      -0.04151998
C        4.28495819      -0.02669999      -2.06125921
C        4.29503832      -0.10317996      -3.25977869
H        3.67992865       1.59722935       0.91960966
H        2.94557883       1.90321923      -0.68774972
H        5.25215803       0.03757999      -0.15569994
H        3.08662873      -1.82898931      -0.43531983
H        4.29672843      -0.16872994      -4.32386818
