17
Properties=species:S:1:pos:R:3 atomization_energy=-1604.79 smiles=N.C.C.N.C.C.O.H.H.H.H.H.H.H.H.H.H pbc="F F F"
N        0.99118960       0.03750998      -0.03741998
C        2.45080897       0.01876999       0.04351998
C        3.05160868       1.10340951       0.93595965
N        4.42956822       0.63676972       1.16847956
C        4.29126849      -0.81528967       1.39089947
C        3.01327881      -1.26877947       0.66524972
O        3.27653878      -2.24161903      -0.34560986
H        0.68170973      -0.78690966      -0.55553981
H        0.68355976       0.84919965      -0.57092975
H        2.83939885       0.12905995      -0.97789963
H        2.52270899       1.18508952       1.89391931
H        3.04101884       2.08711913       0.45558983
H        4.97201785       0.78935967       0.31828989
H        5.18576816      -1.34616946       1.04966958
H        4.18691841      -0.99182964       2.46759909
H        2.31451905      -1.71025937       1.38561944
H        3.97488850      -1.88915921      -0.92395966
