15
Properties=species:S:1:pos:R:3 atomization_energy=-1412.57 smiles=C.N.O.C.C.C.N.H.H.H.H.H.H.H.H pbc="F F F"
C        1.15251961       0.61909978      -0.79148966
N        2.30781915       0.36695986      -0.27349989
O        3.06681870       1.54840944      -0.27221988
C        4.38398812       1.24453952       0.20018992
C        5.21780817       2.48564910       0.11174996
C        5.48179764       3.32587863       1.33388951
N        6.54321746       2.51834896       0.73872972
H        0.40568984      -0.18398992      -0.88174962
H        0.86518963       1.61678931      -1.16247950
H        4.82112830       0.46512981      -0.43447982
H        4.31982836       0.87162963       1.22938955
H        5.13662816       2.97023891      -0.85371966
H        5.11609799       2.98573887       2.29487910
H        5.56477779       4.39907803       1.22012950
H        7.18336723       3.10025890       0.19426993
