16
Properties=species:S:1:pos:R:3 atomization_energy=-1612.68 smiles=N.C.O.C.C.C.C.H.H.H.H.H.H.H.H.H pbc="F F F"
N        2.18962921       0.98058961      -1.65022939
C        2.32976920       0.00642000      -0.70506974
O        1.86383928      -1.11319959      -0.87846963
C        3.11495871       0.40733983       0.52715980
C        4.55968839       0.01783999       0.42700984
C        5.59747790       1.00705960      -0.03890998
C        5.55974782       0.58185979       1.40309943
H        2.75380884       1.81835935      -1.63898942
H        1.74418935       0.71229972      -2.51821901
H        2.65674887      -0.09316997       1.38797949
H        3.00237885       1.48504943       0.69658971
H        4.68075794      -1.02436959       0.14696995
H        5.29529810       2.02154922      -0.27098989
H        6.40954751       0.63603973      -0.65488976
H        6.34463731      -0.07650997       1.75960931
H        5.22175817       1.30290954       2.13882912
