13
Properties=species:S:1:pos:R:3 atomization_energy=-1331.18 smiles=O.C.C.C.C.N.N.H.H.H.H.H.H pbc="F F F"
O        1.62938935       0.23499990       1.27070955
C        2.43995898       0.01802999       0.38654985
C        2.98993892      -1.31772946      -0.02436999
C        3.91044839      -0.96207960      -1.14952961
C        5.08672814      -0.04134999      -0.93289963
N        3.83121840       0.47118983      -1.47307947
N        3.04934880       0.96502960      -0.42169984
H        2.17405911      -1.95973928      -0.36648986
H        3.52784860      -1.78089926       0.80634970
H        3.91932844      -1.65485929      -1.97803923
H        5.37592802       0.24322991       0.07212997
H        5.90849787      -0.09527996      -1.63744931
H        2.75818881       1.93476922      -0.38710984
