16
Properties=species:S:1:pos:R:3 atomization_energy=-1620.42 smiles=C.C.C.C.C.C.H.H.H.H.H.H.H.H.H.H pbc="F F F"
C        0.79674969       1.38842940      -0.62874975
C       -0.32285986       0.95375960       0.27654988
C       -1.39413940       0.00815000      -0.18699992
C       -0.79285969      -1.37842951       0.07361997
C        0.70894971      -1.19743950      -0.17413994
C        0.97928960       0.20728992       0.28443987
H        0.70377970       1.21486953      -1.69437928
H        1.32079945       2.30546919      -0.37902984
H       -0.58637974       1.54597936       1.14116950
H       -2.32929910       0.14461994       0.36280986
H       -1.59559942       0.14732995      -1.25502956
H       -0.95571965      -1.65036930       1.12477957
H       -1.23686953      -2.15882915      -0.55117978
H        1.29428953      -1.93223922       0.38497984
H        0.94083961      -1.30651952      -1.23931954
H        1.61566934       0.28403990       1.15450949
