16
Properties=species:S:1:pos:R:3 atomization_energy=-1615.44 smiles=N.C.O.C.C.C.C.H.H.H.H.H.H.H.H.H pbc="F F F"
N        1.15028951      -0.22955991       0.46961982
C        2.44693896      -0.22662991       0.04407998
O        2.97392875      -1.25151951      -0.36832986
C        3.11368873       1.12978961       0.08527997
C        4.63290836       1.00593963       0.00211000
C        5.29422770       2.35415903       0.06614997
C        6.09622779       2.74847885       1.06260957
H        0.71958970       0.56377975       0.92305966
H        0.67114973      -1.12048956       0.49209979
H        2.82664880       1.64082929       1.01217959
H        2.73070893       1.71704935      -0.75834967
H        4.92303783       0.51765978      -0.93643965
H        4.99360782       0.35777986       0.81188970
H        5.11299785       3.03081885      -0.76563971
H        6.31608754       2.10431917       1.90889921
H        6.55513759       3.73179862       1.05001956
