13
Properties=species:S:1:pos:R:3 atomization_energy=-1277.77 smiles=N.N.C.C.O.C.C.H.H.H.H.H.H pbc="F F F"
N        0.88640968       0.90562962      -0.67357975
N        2.21025906       0.86812966      -0.94888961
C        2.94863886       1.07655957       0.10103996
C        4.46640808       1.10055956       0.00000000
O        4.91142807       0.43609982      -1.17299957
C        4.94841781       2.46172911       0.00000000
C        5.34570783       3.58362870       0.00000000
H        0.36771985       0.48892982      -1.45300942
H        0.55177976       1.87328921      -0.64187975
H        2.51692909       1.27627951       1.09935960
H        4.85992827       0.55285980       0.86210967
H        4.23034841       0.62801976      -1.84664921
H        5.70998786       4.58525812      -0.00896999
