18
Properties=species:S:1:pos:R:3 atomization_energy=-1780.03 smiles=C.C.C.C.C.C.N.H.H.H.H.H.H.H.H.H.H.H pbc="F F F"
C        1.10034962       0.17745994       0.14360995
C        2.57014903      -0.08417997      -0.18520993
C        2.83493890      -1.54746937      -0.56072976
C        2.75402888      -1.56439941      -2.07612922
C        3.23974863      -0.20021992      -2.44461903
C        2.31226901       0.97371964      -2.46331905
N        3.13940885       0.72923973      -1.28740947
H        0.92185964       1.24212950       0.32225988
H        0.81820965      -0.36416986       1.05285961
H        0.42746984      -0.16076994      -0.64802975
H        3.14567878       0.14674995       0.72001974
H        2.14208924      -2.25601908      -0.09708996
H        3.85138850      -1.82279924      -0.25266990
H        3.37623864      -2.35578909      -2.50371905
H        1.72261932      -1.71533931      -2.41528905
H        4.17524835      -0.17274994      -2.98502881
H        2.59967886       1.83060927      -3.06161891
H        1.24498955       0.81213969      -2.42228897
