16
Properties=species:S:1:pos:R:3 atomization_energy=-1589.92 smiles=N.C.C.O.C.C.C.H.H.H.H.H.H.H.H.H pbc="F F F"
N        2.31237903      -0.42500983      -1.49303938
C        2.40226901       0.13115995      -0.13696995
C        3.36074879       1.33322942      -0.01499999
O        3.46435853       1.71400927       1.37666950
C        3.20318886       3.12410875       1.49089936
C        2.80916881       3.57471863       0.13725994
C        2.89396877       2.55920896      -0.71926975
H        1.68028936      -1.22486954      -1.47806945
H        3.22393881      -0.79025967      -1.76701927
H        2.72893882      -0.65833976       0.55065979
H        1.39833946       0.42190985       0.19616992
H        4.36405849       1.05459956      -0.35766987
H        4.11092835       3.62569862       1.83809922
H        2.40187916       3.27337884       2.21966924
H        2.50257902       4.57993798      -0.10764995
H        2.66862888       2.59762892      -1.77496935
