15
Properties=species:S:1:pos:R:3 atomization_energy=-1461.5 smiles=C.N.N.C.O.C.C.H.H.H.H.H.H.H.H pbc="F F F"
C        3.06806876       0.26538990       2.49803907
N        2.53749888       1.22009947       1.52717942
N        3.08038883       0.97061962       0.24671990
C        4.12777827       1.74950937      -0.21546992
O        4.67281808       2.63049885       0.44207982
C        4.52752826       1.40847939      -1.60523935
C        5.53679778       2.05959913      -2.20054910
H        2.63210898       0.46446980       3.48141864
H        4.15663841       0.34641988       2.58560887
H        2.80943880      -0.76120972       2.21906920
H        2.85436891       2.15942919       1.80707926
H        2.60466896       0.30617988      -0.35605987
H        3.99148836       0.62629974      -2.12492920
H        6.08438739       2.84677878      -1.68946930
H        5.83591781       1.81665926      -3.21439868
