18
Properties=species:S:1:pos:R:3 atomization_energy=-1706.47 smiles=C.N.C.C.C.C.O.H.H.H.H.H.H.H.H.H.H.H pbc="F F F"
C        1.35887952      -0.01899999      -0.74956968
N        2.81405899       0.03526999      -0.77070968
C        3.31836874       0.92157961       0.27434991
C        4.81253794       0.89194967       0.20397992
C        5.56587795       1.88676925      -0.64420977
C        5.61185775       1.99041923       0.85421965
O        6.84795742       1.60126943       1.46913945
H        1.00987959      -0.71489974      -1.51791937
H        0.91883967       0.96114963      -0.95663965
H        0.98887964      -0.38147985       0.21465992
H        3.12422886       0.38096986      -1.67792930
H        3.00432887       0.56747975       1.26331952
H        2.93581891       1.94107927       0.13716995
H        5.19816772      -0.11847995       0.27956988
H        5.00768790       2.64592891      -1.18014951
H        6.45207744       1.54512938      -1.16558949
H        5.07383805       2.81490884       1.31171944
H        7.20726704       0.78076969       1.09146957
