15
Properties=species:S:1:pos:R:3 atomization_energy=-1483.76 smiles=N.C.N.C.C.C.O.H.H.H.H.H.H.H.H pbc="F F F"
N        1.53713944      -1.09017953      -0.64290976
C        2.02716926      -0.25353991       0.31261988
N        1.66379939      -0.33228986       1.54634940
C        3.07222868       0.76937970      -0.08241997
C        4.47065835       0.21980992       0.15675994
C        4.84845830      -0.86495963      -0.82433966
O        4.11582837      -1.28486950      -1.71722927
H        2.17617920      -1.23783949      -1.43186949
H        1.15059949      -1.96658920      -0.31867987
H        0.94371966      -1.05154957       1.64148939
H        2.92141888       1.66684931       0.52893978
H        2.92779882       1.05327956      -1.13107953
H        4.56868804      -0.19404993       1.16608948
H        5.20535815       1.02342959       0.04300998
H        5.86019763      -1.28452948      -0.68773976
