12
Properties=species:S:1:pos:R:3 atomization_energy=-1359.29 smiles=O.C.C.C.C.N.C.H.H.H.H.H pbc="F F F"
O        0.98543960      -0.07095997       0.09724996
C        2.34308901      -0.03080999       0.00618000
C        3.03613876       1.16912957      -0.07752997
C        4.42589832       1.13723956      -0.16880992
C        5.06117809      -0.09638997      -0.17229994
N        4.41045817      -1.27714955      -0.09180996
C        3.06074888      -1.21670953      -0.00407000
H        0.64477973       0.83882965       0.08932997
H        2.52107893       2.12364913      -0.07326997
H        5.00309799       2.05256918      -0.23597991
H        6.14289746      -0.16891993      -0.24198990
H        2.55435890      -2.17470912       0.05975998
