9
Properties=species:S:1:pos:R:3 atomization_energy=-1061.53 smiles=N.C.C.C.O.N.C.H.H pbc="F F F"
N        0.90591962       0.03517998      -0.00447000
C        2.06626913       0.02325999      -0.00238000
C        3.48328867       0.00731000       0.00017000
C        4.31560836       1.09445958       0.00190000
O        5.60601780       0.66977976       0.00413000
N        5.63199782      -0.71892973       0.00389000
C        4.34982852      -1.09600952       0.00150000
H        4.17574847       2.16565925       0.00187000
H        4.11685839      -2.15200914       0.00085000
