14
Properties=species:S:1:pos:R:3 atomization_energy=-1365.17 smiles=C.C.O.C.O.C.H.H.H.H.H.H.H.H pbc="F F F"
C        0.69645976       1.24031953      -0.21705992
C       -0.74982971       1.19838952       0.24388991
O       -1.37607943       0.00252000      -0.21149991
C       -0.66994971      -1.14562958       0.24315990
O        0.66803975      -1.17328950      -0.23886991
C        1.39618947      -0.03643999       0.21521992
H        0.71090969       1.29090955      -1.31211951
H        1.20955947       2.12298928       0.17489993
H       -1.30378955       2.04840925      -0.16705993
H       -0.82280965       1.25225947       1.33704946
H       -0.68866972      -1.20364949       1.33841949
H       -1.18346955      -2.02901923      -0.14606994
H        1.50145942      -0.08495997       1.30575950
H        2.40098894      -0.08303997      -0.21672992
