11
Properties=species:S:1:pos:R:3 atomization_energy=-1234.76 smiles=N.C.N.C.O.C.C.H.H.H.H pbc="F F F"
N        1.09732959      -0.04811998      -0.27175988
C        2.34402919       0.02004999      -0.00871000
N        3.12743876      -1.04926957       0.21485992
C        4.39481818      -0.64807972       0.46486981
O        5.36056812      -1.34448944       0.70789969
C        4.40598837       0.81761970       0.39044985
C        3.16539872       1.22034953       0.10402995
H        0.78647969      -1.02216957      -0.28720990
H        2.85654880      -2.01631914       0.20761992
H        5.28649779       1.41373949       0.54750981
H        2.79450887       2.22125918      -0.02774999
