12
Properties=species:S:1:pos:R:3 atomization_energy=-1222.66 smiles=C.C.O.C.C.O.H.H.H.H.H.H pbc="F F F"
C        0.30946987       1.35018948       0.16434994
C        1.34841950       0.28047988      -0.15476993
O        0.96830959      -0.99498958       0.38742985
C       -0.36867984      -1.23887948       0.19162993
C       -1.25984947      -0.31878988      -0.19462992
O       -0.97479961       1.01091957      -0.38423985
H        0.61030976       2.31382918      -0.25833989
H        0.19446992       1.47321939       1.24841949
H        2.31911905       0.55037976       0.27273991
H        1.47218937       0.16595994      -1.23886951
H       -0.61474978      -2.27342918       0.38754984
H       -2.30057901      -0.53265980      -0.39548985
