12
Properties=species:S:1:pos:R:3 atomization_energy=-1318.47 smiles=N.C.O.C.C.C.C.H.H.H.H.H pbc="F F F"
N        1.03525957       0.03967998       0.00000000
C        2.39198903      -0.03694999      -0.00000000
O        2.99700874      -1.09847959      -0.00000000
C        3.09949888       1.21762952       0.00000000
C        3.69457850       2.24833912       0.00000000
C        4.39757817       3.46596865       0.00000000
C        3.76653858       4.64476793       0.00000000
H        0.54631975       0.92251960       0.00000000
H        0.51161979      -0.82403970       0.00000000
H        5.48347766       3.43143863      -0.00000000
H        2.68363905       4.71738836       0.00000000
H        4.33102833       5.57178805       0.00000000
