14
Properties=species:S:1:pos:R:3 atomization_energy=-1363.63 smiles=C.O.C.C.C.N.O.H.H.H.H.H.H.H pbc="F F F"
C        3.68465860      -1.06581960       0.47212982
O        2.71689884      -0.02127999       0.45006983
C        3.17465877       1.24759954       0.21614992
C        4.42790839       1.65916936      -0.00905000
C        4.67915815       3.09339878      -0.23955990
N        5.87051748       3.53958857      -0.47321980
O        5.80787776       4.92661790      -0.65332972
H        3.16009876      -2.00718917       0.66110972
H        4.40647840      -0.91169964       1.28102952
H        4.19319844      -1.14991959      -0.49399982
H        2.32532917       1.92403921       0.23752990
H        5.28967767       1.00688959      -0.03782999
H        3.80312863       3.76617850      -0.20357993
H        6.74022711       5.15721789      -0.82471967
