18
Properties=species:S:1:pos:R:3 atomization_energy=-1709.28 smiles=C.O.C.C.N.C.C.H.H.H.H.H.H.H.H.H.H.H pbc="F F F"
C        2.23592922      -1.03624959      -0.52052980
O        3.42698877      -0.33281988      -0.19222993
C        3.25068871       1.08710954      -0.31983987
C        4.58227809       1.80165930       0.01513000
N        5.67289769       1.27707953      -0.82541970
C        4.58495836       3.30124882      -0.11034996
C        3.57063868       4.10234833      -0.46516980
H        2.42271895      -2.10592917      -0.39588986
H        1.95745922      -0.84940965      -1.56193944
H        1.42041945      -0.74249974       0.14688994
H        2.46654914       1.41136946       0.37479986
H        2.93654891       1.31545949      -1.34589947
H        4.84281819       1.55312942       1.05153960
H        5.41936786       1.41944949      -1.80219929
H        5.65435791       0.25962989      -0.70694973
H        5.53866806       3.77201846       0.13013995
H        2.58430911       3.72991850      -0.71732969
H        3.71669862       5.17815785      -0.51187979
