13
Properties=species:S:1:pos:R:3 atomization_energy=-1350.18 smiles=N.C.C.C.C.O.N.H.H.H.H.H.H pbc="F F F"
N        1.03904959      -0.05577998      -0.02011999
C        2.37503919       0.04728998      -0.00635000
C        3.19665878       1.14924952       0.00056000
C        4.53328798       0.67749971       0.01306999
C        4.49198842      -0.69864974       0.01275000
O        5.48593790      -1.57827940       0.02115999
N        3.16890865      -1.06896958       0.00085000
H        0.44789981       0.77174973       0.00320000
H        0.52915978      -0.93250965       0.01412999
H        2.87686878       2.18217913      -0.00349000
H        5.43464803       1.27508952       0.02050999
H        5.12690786      -2.48020909       0.01539000
H        2.81914902      -2.01315920      -0.00440000
