16
Properties=species:S:1:pos:R:3 atomization_energy=-1557.29 smiles=C.N.C.C.C.O.O.H.H.H.H.H.H.H.H.H pbc="F F F"
C        1.74177933      -0.93430966       0.15162994
N        3.10741880      -0.76840968      -0.35275986
C        3.57188848       0.61241976      -0.11344996
C        5.04427795       0.73307971      -0.48993981
C        5.95510749      -0.02732999       0.44461982
O        5.50432780      -1.25619950       0.78236972
O        7.04695746       0.39139985       0.80591966
H        1.41198944      -1.96121921      -0.02935999
H        1.04466957      -0.25911990      -0.35618985
H        1.69507938      -0.75658973       1.23031952
H        3.07980872      -0.93079960      -1.36553942
H        3.44582858       0.87371969       0.94454964
H        2.97962892       1.31258947      -0.71354971
H        5.32887783       1.79069930      -0.43678982
H        5.23002807       0.38871983      -1.51350937
H        4.59727818      -1.41890950       0.41586983
