14
Properties=species:S:1:pos:R:3 atomization_energy=-1441.28 smiles=C.N.C.C.C.C.O.H.H.H.H.H.H.H pbc="F F F"
C        1.17701959       0.10145996      -0.23444991
N        2.59928901       0.18559992       0.03800998
C        3.37143855      -1.04345958       0.07395997
C        3.75839863      -1.46547938      -1.27850949
C        4.07942833      -1.80477926      -2.38435904
C        3.23326877       1.41050939       0.04720998
O        2.69306892       2.50155909      -0.07947997
H        0.70229971       1.08542952      -0.19131992
H        0.71116972      -0.54908978       0.51135980
H        1.02749956      -0.31906988      -1.23293947
H        2.78040885      -1.81638927       0.57654980
H        4.27328838      -0.87650965       0.67401975
H        4.36407817      -2.09898917      -3.36892861
H        4.32193835       1.32755953       0.20474993
