20
Properties=species:S:1:pos:R:3 atomization_energy=-1859.41 smiles=C.N.C.C.C.C.O.H.H.H.H.H.H.H.H.H.H.H.H.H pbc="F F F"
C        2.87288876      -0.78466971       1.08720959
N        2.57457896       0.05237998      -0.06929997
C        3.04984892       1.45811938       0.02102999
C        2.56221902       2.14679926      -1.27149947
C        2.45659896       2.20908925       1.22392948
C        4.60008814       1.51968934       0.06666997
O        5.15959788       0.70352970      -0.96322960
H        2.49595910      -1.79463932       0.89767968
H        2.38581903      -0.42324982       1.99674922
H        3.94808839      -0.87653968       1.26227954
H        1.56233938       0.05516998      -0.21160991
H        2.93831876       1.64254931      -2.16845912
H        2.90261893       3.18855870      -1.31319948
H        1.46732947       2.15742922      -1.33121947
H        2.82850899       1.81455924       2.17575907
H        1.36319943       2.14302918       1.23468952
H        2.72283897       3.27106875       1.18958959
H        4.98941811       1.16196954       1.02509958
H        4.96239797       2.54253895      -0.07739997
H        4.51860836      -0.02984999      -1.06977956
