15
Properties=species:S:1:pos:R:3 atomization_energy=-1431.06 smiles=C.O.C.C.N.N.C.H.H.H.H.H.H.H.H pbc="F F F"
C        3.34643858      -1.07664953      -0.49653981
O        2.62002887      -0.14280995       0.29550990
C        2.89362888       1.20360950      -0.06862997
C        4.26879839       1.64718930       0.36850987
N        5.15497820       2.01632924      -0.50041982
N        6.34145743       2.37384894       0.13085995
C        7.22142736       2.75017881      -0.73483971
H        3.01823888      -2.08299919      -0.22306991
H        4.41925847      -0.99929959      -0.29839988
H        3.14529877      -0.92257966      -1.56099938
H        2.16992920       1.83577929       0.45512982
H        2.75744897       1.35026947      -1.14555955
H        4.47488843       1.63314934       1.45355938
H        8.22048654       3.06628881      -0.39842986
H        7.02680729       2.77456889      -1.82063928
