11
Properties=species:S:1:pos:R:3 atomization_energy=-1210.26 smiles=N.C.C.C.O.C.N.H.H.H.H pbc="F F F"
N        0.99331959      -0.10018997       0.12549995
C        2.26969921       0.00793000       0.03329999
C        2.98829877       1.28536949      -0.03395999
C        4.31509815       1.22837947      -0.13238995
O        5.04432791       0.04957998      -0.17313993
C        4.27638852      -1.07250953      -0.10024996
N        2.99509885      -1.13943952      -0.00382000
H        0.54865981       0.81814966       0.14515995
H        2.43761911       2.21320906      -0.00332000
H        4.96619808       2.08929915      -0.19087992
H        4.91349819      -1.96911920      -0.13533995
