15
Properties=species:S:1:pos:R:3 atomization_energy=-1449.71 smiles=C.O.C.C.N.N.C.H.H.H.H.H.H.H.H pbc="F F F"
C        2.39532915      -0.79173966       0.12359995
O        1.66450932       0.43709984       0.07210997
C        2.40620916       1.57775934       0.09985996
C        1.53454939       2.79689895       0.02237999
N        3.70198846       1.56656934       0.17783993
N        4.26369828       2.84062897       0.19229993
C        5.55032778       2.76985888       0.25409989
H        1.67385933      -1.61328935       0.10146996
H        2.96805877      -0.86062969       1.05357957
H        3.05008889      -0.88401966      -0.74838972
H        0.47733980       2.51824904      -0.00722000
H        1.77086934       3.35778869      -0.88612965
H        1.70102935       3.42683863       0.90047967
H        6.14877779       3.69341853       0.27631988
H        6.10121739       1.81449931       0.28671987
