14
Properties=species:S:1:pos:R:3 atomization_energy=-1305.32 smiles=C.C.C.C.H.H.H.H.H.H.H.H.H.H pbc="F F F"
C        0.98783959      -0.00764000      -0.00077000
C        2.51476888       0.00873000      -0.00625000
C        3.05522888      -0.74688973      -1.21801951
C        3.03627880       1.44370938       0.00805000
H        0.59668974       0.50830980       0.88267966
H        0.61008973      -1.03557959       0.01800999
H        0.58005979       0.48659982      -0.88953966
H        2.86833897      -0.49598979       0.90095967
H        2.72899888      -0.28298988      -2.15530913
H        2.70743894      -1.78541926      -1.21533950
H        4.15030843      -0.76105971      -1.21051946
H        2.71065894       1.99526917      -0.88070964
H        4.13106842       1.45904948       0.03372999
H        2.67361898       1.98029923       0.89120965
