11
Properties=species:S:1:pos:R:3 atomization_energy=-1217.33 smiles=O.C.C.C.C.N.N.H.H.H.H pbc="F F F"
O        1.00508958       0.00423000      -0.14297994
C        2.35532909       0.04528998       0.00648000
C        3.01745892       1.24987948       0.04331998
C        4.39519818       1.21328955       0.19824992
C        5.00464782      -0.02442999       0.30442987
N        4.31431845      -1.18560957       0.26309990
N        2.96429879      -1.14984957       0.11128996
H        0.84660966      -0.95692964      -0.13106995
H        2.47812912       2.18427903      -0.04567998
H        4.97926783       2.12522923       0.23538991
H        6.07717778      -0.12564995       0.42726983
