18
Properties=species:S:1:pos:R:3 atomization_energy=-1718.79 smiles=N.C.C.C.O.C.C.H.H.H.H.H.H.H.H.H.H.H pbc="F F F"
N        1.27850949       0.12033996       0.46861980
C        2.60328896       0.23310991      -0.13981995
C        2.55290901      -0.32069987      -1.57081935
C        3.91749853      -0.31871986      -2.25385912
O        3.81545854      -0.89747964      -3.55121851
C        3.00091886       1.67994934      -0.09895996
C        4.08743833       2.15343910       0.52642980
H        1.33196952       0.44638982       1.43321946
H        1.00654957      -0.85952965       0.51691979
H        3.30288873      -0.37168984       0.45067984
H        1.84266931       0.24583991      -2.18847909
H        2.17046919      -1.35046944      -1.55791942
H        4.64973835      -0.89493967      -1.67885940
H        4.30167817       0.69780973      -2.37890894
H        3.45646863      -1.79501933      -3.44880861
H        2.34863903       2.38007900      -0.61932978
H        4.77064792       1.50295940       1.06305960
H        4.31174820       3.21601864       0.51407980
