14
Properties=species:S:1:pos:R:3 atomization_energy=-1396.15 smiles=C.O.C.O.N.C.C.H.H.H.H.H.H.H pbc="F F F"
C        1.61749937      -0.47180981      -0.74541971
O        2.63163888       0.28615989      -1.40315949
C        3.73546852       0.52095980      -0.64330977
O        3.87566857       0.14343994       0.51464978
N        4.67010804       1.23811945      -1.37724949
C        6.06556752       0.91830965      -1.28964954
C        5.53437793       2.18536910      -0.73288970
H        0.86111965      -0.74022970      -1.48774938
H        1.14307952       0.13241994       0.03299999
H        2.02555926      -1.39624940      -0.32458987
H        6.56600752       0.92766962      -2.24788922
H        6.31711756       0.10796996      -0.61716977
H        5.41278807       2.27926913       0.33919986
H        5.65738790       3.10268885      -1.29033953
