16
Properties=species:S:1:pos:R:3 atomization_energy=-1576.92 smiles=N.C.C.C.C.C.O.H.H.H.H.H.H.H.H.H pbc="F F F"
N        1.08432961      -0.00020000       0.00675000
C        2.55193904      -0.00098000       0.07326997
C        3.18403868      -0.96160963      -0.98254959
C        4.68823804      -0.75202972      -0.84611970
C        4.68564811       0.78236972      -0.83255967
C        3.18035869       0.98845963      -0.95990961
O        2.76643903       0.02385999      -2.02817922
H        0.63479977       0.71648975       0.57149977
H        0.64924977      -0.88856963       0.24328990
H        2.96861895      -0.02278999       1.08345957
H        2.76478879      -1.95875923      -1.11774950
H        5.09057821      -1.17555960       0.07882997
H        5.24148795      -1.15091958      -1.70156934
H        5.23223799       1.19767959      -1.68370933
H        5.09105815       1.19136954       0.09768996
H        2.75604879       1.98618928      -1.07322956
