21
Properties=species:S:1:pos:R:3 atomization_energy=-2044.96 smiles=C.C.C.C.C.C.C.H.H.H.H.H.H.H.H.H.H.H.H.H.H pbc="F F F"
C        1.26065945      -0.48336982      -0.27272990
C        2.78982888      -0.42588984      -0.27698989
C        3.31971871      -0.81719969      -1.65771934
C        3.26224876       0.97444963       0.15165993
C        4.75491809       1.06761960       0.29568987
C        5.58624764       1.73517935      -0.76984967
C        5.39180774       2.40789903       0.55948980
H        0.86408965      -0.23943990       0.71830975
H        0.90797965      -1.48621937      -0.53529982
H        0.83491965       0.22442992      -0.99214960
H        3.15891886      -1.16205950       0.44883983
H        3.01779881      -0.09157996      -2.42013911
H        2.93671873      -1.79943929      -1.95462920
H        4.41219825      -0.88038968      -1.66000937
H        2.81696887       1.21707957       1.12476960
H        2.89444895       1.72739935      -0.55704976
H        5.17638800       0.21896991       0.82400967
H        5.08632795       2.16395905      -1.63105940
H        6.56074742       1.31438948      -0.99008963
H        6.23618736       2.44225898       1.23874953
H        4.75745806       3.28618868       0.59799978
