13
Properties=species:S:1:pos:R:3 atomization_energy=-1337.73 smiles=N.C.N.C.C.C.O.H.H.H.H.H.H pbc="F F F"
N        0.98378961      -0.06890997       0.16011994
C        2.34463908      -0.01156999       0.04159999
N        2.99570873      -1.13061953      -0.03362999
C        3.12271866       1.26925953       0.00252000
C        2.50569909       2.46199910      -0.03685999
C        4.61390832       1.25117949      -0.01836999
O        5.30611806       2.26672902      -0.01978999
H        0.52541979       0.73110969       0.58033975
H        0.59230977      -0.94400965       0.48506981
H        2.34005901      -1.91471922      -0.03002999
H        1.42969944       2.57328904      -0.05766998
H        3.08130883       3.38435866      -0.07350997
H        5.07407777       0.25005990      -0.03043999
