15
Properties=species:S:1:pos:R:3 atomization_energy=-1474.37 smiles=N.C.O.C.C.N.C.H.H.H.H.H.H.H.H pbc="F F F"
N        0.92133964       0.15610993      -0.29828989
C        2.12539904       0.08389997       0.35004985
O        2.36633906      -0.90230964       1.04620961
C        3.08008880       1.26833953       0.11104995
C        2.54327903       2.70750884       0.24286991
N        3.82193841       3.09627888       0.87895966
C        4.00657853       1.67879934       1.27547949
H        0.65515975       0.91793967      -0.90470962
H        0.27624989      -0.61308976      -0.16797993
H        3.64460858       1.12371953      -0.82276965
H        1.67720940       2.82199884       0.90568962
H        2.33016914       3.21960881      -0.70018971
H        4.52684798       3.41961868       0.21483991
H        5.03726819       1.31813950       1.20960956
H        3.62084857       1.45594946       2.27760905
