12
Properties=species:S:1:pos:R:3 atomization_energy=-1314.1 smiles=N.C.O.C.C.C.C.H.H.H.H.H pbc="F F F"
N        1.16790955      -0.07318997      -0.61200978
C        2.38386901      -0.05739998       0.00680000
O        2.85148880      -1.08205951       0.48806981
C        3.11849867       1.25053945       0.00000000
C        2.45120891       2.41462895       0.06812998
C        4.52449827       1.25053945       0.00000000
C        5.71465750       1.25053945       0.00000000
H        0.82654970       0.69138973      -1.17401949
H        0.70806970      -0.97112964      -0.68538973
H        1.37048940       2.46382901       0.13578995
H        2.98249893       3.36194862       0.09488997
H        6.77965740       1.23760950       0.00504000
