11
Properties=species:S:1:pos:R:3 atomization_energy=-1215.35 smiles=O.C.C.C.N.C.N.H.H.H.H pbc="F F F"
O        1.18883954      -0.21214992       0.41079983
C        2.36416901      -0.04457998       0.20514992
C        3.31654868       1.12967959      -0.06181998
C        4.26753825       0.04462998      -0.61016978
N        3.35907861      -0.95022961      -0.00190000
C        4.35103820      -0.07158998      -2.05342925
N        4.41245815      -0.16959993      -3.20839874
H        3.65343866       1.63482936       0.84807968
H        2.93838890       1.86091930      -0.78065966
H        5.24644777       0.03509999      -0.11743995
H        3.08523889      -1.85685929      -0.36021987
