18
Properties=species:S:1:pos:R:3 atomization_energy=-1699.17 smiles=C.O.C.C.C.N.C.H.H.H.H.H.H.H.H.H.H.H pbc="F F F"
C        1.47679946       1.54827936       1.50708943
O        2.89251887       1.41861945       1.50858942
C        3.45445856       1.76253925       0.24230990
C        4.95794786       1.60972934       0.33627988
C        5.77049791       2.11549921      -0.87214968
N        6.77637710       2.65057886       0.07414997
C        5.72258777       2.69612895       1.11801962
H        1.10227958       1.24796946       2.48945905
H        1.03177961       0.89625962       0.74902969
H        1.18909957       2.58834893       1.32603949
H        3.17458862       2.79035903      -0.01699999
H        3.05716880       1.08685961      -0.52379979
H        5.25023779       0.59148976       0.63254974
H        5.28360810       2.89539898      -1.46978945
H        6.14397744       1.34041947      -1.54769938
H        7.51553711       1.98084919       0.29200988
H        6.05806773       2.41097899       2.11944907
H        5.22104811       3.66926867       1.18010951
