14
Properties=species:S:1:pos:R:3 atomization_energy=-1429.71 smiles=C.C.O.C.C.C.H.H.H.H.H.H.H.H pbc="F F F"
C        0.39986985       1.37397940       0.31048989
C        1.34023943       0.29686987      -0.21421991
O        0.98505959      -1.01553963       0.24263990
C       -0.35502986      -1.29101944       0.18971992
C       -1.32510952      -0.38983984      -0.00097000
C       -1.03074959       1.07076958      -0.12260995
H        0.70455971       2.36352910      -0.04573998
H        0.44535981       1.38793950       1.40691948
H        2.36124903       0.49612981       0.12794995
H        1.35895951       0.29158990      -1.31125944
H       -0.53780976      -2.34730900       0.34230987
H       -2.36153896      -0.71088970      -0.04100998
H       -1.18574949       1.37753942      -1.16345956
H       -1.72904934       1.64555936       0.49555979
