18
Properties=species:S:1:pos:R:3 atomization_energy=-1765.27 smiles=C.C.C.C.C.C.N.H.H.H.H.H.H.H.H.H.H.H pbc="F F F"
C        1.01909958       0.02214999      -0.05511998
C        2.50703897      -0.05988998      -0.05118998
C        3.23014869      -0.75880967      -1.16507952
C        3.31790874       0.74812969      -1.04427960
C        4.59270795       1.47273945      -0.63052976
C        5.97190771       1.05243961      -1.08227955
N        5.32569796       2.21759912      -1.66011938
H        0.68871974       0.88234967       0.53580978
H        0.59119977      -0.88167966       0.39013986
H        0.61355979       0.12787995      -1.06659956
H        2.89892884      -0.17704993       0.95278964
H        2.65736885      -1.15996956      -1.99340924
H        4.10087850      -1.34987949      -0.90806967
H        2.73533895       1.30197945      -1.78235924
H        4.53483830       1.97993916       0.33143988
H        6.06437752       0.19225992      -1.73323930
H        6.80999721       1.23150951      -0.42155983
H        5.70516783       3.08266889      -1.27111946
