18
Properties=species:S:1:pos:R:3 atomization_energy=-1710.52 smiles=C.O.C.C.C.C.N.H.H.H.H.H.H.H.H.H.H.H pbc="F F F"
C        1.03984960       0.50680979       0.95110962
O        2.45809907       0.53849975       0.87117966
C        2.90641879       1.50969942      -0.06973998
C        4.40008837       1.46163941      -0.08126997
C        5.19547787       2.51822910       0.15528994
C        6.68708716       2.46505912       0.15797993
N        7.20135694       3.40505866      -0.82630967
H        0.75367971      -0.24049990       1.69584937
H        0.60898976       0.22169992      -0.01349999
H        0.65016978       1.47977937       1.26542952
H        2.53728895       2.50149903       0.21477992
H        2.52780911       1.25920955      -1.06691963
H        4.83819800       0.48954980      -0.29416989
H        4.75333800       3.48655863       0.38110984
H        7.05806710       1.45866946      -0.06371998
H        7.05430736       2.74255891       1.15129959
H        6.91179723       3.09534879      -1.75318937
H        8.21882671       3.36091860      -0.82211965
