13
Properties=species:S:1:pos:R:3 atomization_energy=-1354.3 smiles=C.N.C.N.C.C.O.H.H.H.H.H.H pbc="F F F"
C        3.19186878      -1.09818953       0.40654985
N        2.59081900       0.03114999      -0.26174990
C        3.15735869       1.24431949      -0.15904994
N        2.57138899       2.40955911      -0.31479987
C        3.58212859       3.31518861      -0.11526996
C        4.75041802       2.65374890       0.16187993
O        4.48905835       1.31799946       0.13930994
H        2.60878903      -2.00009916       0.19458992
H        3.20533872      -0.95272965       1.49177936
H        4.21350832      -1.27654950       0.05469998
H        1.57691933       0.04965998      -0.25767989
H        3.41400860       4.38058820      -0.18205993
H        5.76691783       2.94495885       0.37820986
