14
Properties=species:S:1:pos:R:3 atomization_energy=-1413.01 smiles=N.C.O.C.O.C.C.H.H.H.H.H.H.H pbc="F F F"
N       -0.20944992       1.24077953       0.90673963
C        0.84207968       1.58563940       0.10871996
O        0.81949970       2.62072909      -0.55247979
C        2.03291926       0.62921979       0.12053995
O        1.72009928      -0.57689978       0.81784970
C        2.69875900      -1.52714939       0.88649964
C        3.93885837      -1.49874938       0.38697985
H       -0.22193991       0.34143986       1.37321950
H       -1.03729961       1.81956927       0.90233967
H        2.86191891       1.14739956       0.61630976
H        2.27913918       0.40485986      -0.92333962
H        2.32783911      -2.38506910       1.43867940
H        4.33940825      -0.65939974      -0.16859994
H        4.59908840      -2.34904907       0.53079981
