16
Properties=species:S:1:pos:R:3 atomization_energy=-1513.35 smiles=N.C.C.O.C.C.O.H.H.H.H.H.H.H.H.H pbc="F F F"
N        0.89129967       0.48922981       0.29741989
C        2.12181922       0.53415978      -0.48356980
C        3.13622873       1.32880945       0.26544989
O        3.93753842       2.20577917      -0.54674979
C        3.02967882       2.83004897       0.37028984
C        3.67130851       3.55855858       1.49885940
O        3.66562853       4.95111826       1.22241953
H        0.20901992      -0.08626997      -0.19714993
H        0.48297982       1.42363945       0.33301985
H        1.91815926       0.96264961      -1.47014940
H        2.49532903      -0.48385982      -0.63326976
H        3.61827857       0.77503968       1.05927955
H        2.14660925       3.32002858      -0.01575000
H        4.70484800       3.24029871       1.66481931
H        3.10966884       3.39177872       2.42153905
H        4.18072848       5.07288778       0.40600986
