12
Properties=species:S:1:pos:R:3 atomization_energy=-1208.21 smiles=N.C.N.C.C.C.H.H.H.H.H.H pbc="F F F"
N        2.93106878      -1.54879941       0.70213973
C        2.38479911      -0.52592978       0.14989994
N        2.98372880       0.67144975      -0.06584997
C        4.40744836       0.84816970       0.11554996
C        4.76411809       2.24544918      -0.17084993
C        5.05431822       3.38732861      -0.40625985
H        2.25180918      -2.31623919       0.74776967
H        1.33787950      -0.55443977      -0.19908993
H        2.55637907       1.29461945      -0.73995971
H        4.95634808       0.18264993      -0.56014978
H        4.69259833       0.59797978       1.14343960
H        5.31312782       4.40084839      -0.61051977
