12
Properties=species:S:1:pos:R:3 atomization_energy=-1255.41 smiles=N.C.C.C.C.O.O.H.H.H.H.H pbc="F F F"
N        1.09178953       0.26840990      -0.35803986
C        2.53093903       0.01506000      -0.06213997
C        3.08131866      -0.88310963      -1.08503954
C        3.52753849      -1.62221936      -1.92048928
C        3.27157870       1.36934950      -0.06084997
O        2.51862905       2.35066904      -0.63566975
O        4.39209804       1.56641932       0.38449984
H        0.65406974       0.58407974       0.51281978
H        0.65861972      -0.64107973      -0.54118980
H        2.60834896      -0.42166985       0.93875964
H        3.93143857      -2.27130909      -2.66359891
H        1.68090934       1.91260923      -0.93050961
