16
Properties=species:S:1:pos:R:3 atomization_energy=-1584.1 smiles=N.C.C.C.C.O.C.H.H.H.H.H.H.H.H.H pbc="F F F"
N        1.01717959       0.03892999       0.20681992
C        2.44826900      -0.06243998      -0.04356998
C        2.83627877      -1.48678938      -0.48589983
C        2.66622896      -1.49465947      -2.01204919
C        3.02345886      -0.09592996      -2.41022906
O        1.97154927       0.86558964      -2.33862905
C        2.85926893       0.79023967      -1.21541949
H        0.76149971       1.01640961       0.33320986
H        0.77724973      -0.44909984       1.06621954
H        2.99997893       0.22320991       0.85786969
H        2.25960899      -2.27653916       0.00622000
H        3.89459846      -1.65508929      -0.24548991
H        3.32513879      -2.23341903      -2.47763910
H        1.63212941      -1.72497937      -2.29109918
H        3.84572845       0.03470998      -3.09352873
H        3.56221864       1.58274932      -1.02050961
