14
Properties=species:S:1:pos:R:3 atomization_energy=-1458.68 smiles=O.C.C.C.C.N.C.H.H.H.H.H.H.H pbc="F F F"
O        1.67471940       0.10501996       1.38678950
C        2.44983901      -0.01283999       0.44628981
C        2.95527895      -1.32957944      -0.07303997
C        3.89277839      -0.91811964      -1.16083960
C        5.11161810      -0.08334997      -0.86355963
N        3.89568853       0.53855981      -1.38795944
C        3.03430885       1.14381960      -0.34302987
H        2.11864919      -1.90906927      -0.47116983
H        3.47334858      -1.87827931       0.71721974
H        3.88988844      -1.55576943      -2.03433926
H        5.39446781       0.11335996       0.16386995
H        5.94406750      -0.13713994      -1.55632936
H        3.60497870       1.80428923       0.31646989
H        2.21906920       1.69424933      -0.81996966
