20
Properties=species:S:1:pos:R:3 atomization_energy=-1933.84 smiles=C.C.C.C.C.C.N.H.H.H.H.H.H.H.H.H.H.H.H.H pbc="F F F"
C        0.99828964      -0.01107000       0.05292998
C        2.52612909       0.01587999       0.00982000
C        3.00059890       0.08543996      -1.44893944
C        3.08800873       1.16100955       0.84999966
C        4.47088848       0.67309975       1.23498954
C        4.31679836      -0.83506966       1.33454948
N        3.05513880      -1.18504953       0.67433977
H        0.62510975      -0.09468996       1.08122960
H        0.59648977      -0.86059966      -0.51253979
H        0.57825978       0.90614961      -0.37569986
H        4.09317836       0.07045997      -1.53227941
H        2.64733893       1.00637963      -1.92863921
H        2.61616896      -0.75995967      -2.03247919
H        2.49381908       1.31446947       1.76007928
H        3.12764870       2.11383912       0.31133987
H        5.19248774       0.92728961       0.44965982
H        4.81885833       1.12070959       2.17031905
H        5.16564777      -1.34677948       0.87015967
H        4.26695839      -1.15087958       2.38262906
H        3.19392881      -1.94637923       0.01141000
