16
Properties=species:S:1:pos:R:3 atomization_energy=-1597.33 smiles=N.C.C.O.C.C.C.H.H.H.H.H.H.H.H.H pbc="F F F"
N        1.05534956       0.03591998       0.60700978
C        2.41935915       0.00092000       0.06118997
C        2.70931906       1.19245949      -0.86650964
O        4.05258836       1.18485952      -1.37516952
C        4.48123810      -0.03574999      -1.82165933
C        3.88110858      -1.20603957      -1.57548938
C        2.66637884      -1.30719943      -0.70986971
H        0.93294966       0.88000967       1.16596950
H        0.92327963      -0.74979968       1.24312949
H        3.12711881       0.04032998       0.89967965
H        2.58081886       2.13362908      -0.32016989
H        2.01531916       1.21463953      -1.71705932
H        5.39277770       0.06241998      -2.39877902
H        4.28995839      -2.12205919      -1.99481926
H        1.80790930      -1.55467936      -1.34783952
H        2.78969893      -2.13119913       0.00178000
