18
Properties=species:S:1:pos:R:3 atomization_energy=-1710.57 smiles=N.C.C.O.C.C.C.H.H.H.H.H.H.H.H.H.H.H pbc="F F F"
N        1.87774929      -1.28553944      -0.63529977
C        1.61603938       0.04444998      -0.07372997
C        2.88162875       0.90873967      -0.08145997
O        3.85949842       0.30380989       0.77086972
C        5.05753796       1.07208952       0.81477971
C        6.02781775       0.33492988       1.68037931
C        6.59817723       0.83154965       2.78604896
H        1.11574952      -1.91152925      -0.37991984
H        2.71211893      -1.65079940      -0.16725993
H        1.26593948      -0.07895997       0.95756962
H        0.82408966       0.52950976      -0.65286972
H        2.64018888       1.90837928       0.29564988
H        3.27893870       0.99739960      -1.09898955
H        4.84223833       2.07071924       1.21216958
H        5.47463799       1.17069957      -0.19395992
H        6.26876735      -0.67875973       1.36970945
H        6.38101742       1.83398925       3.14048883
H        7.29105716       0.23158991       3.36776864
