11
Properties=species:S:1:pos:R:3 atomization_energy=-1163.28 smiles=C.N.N.C.O.C.C.H.H.H.H pbc="F F F"
C        1.36664943      -0.45884982       0.27487989
N        2.64059891      -0.63608975       0.37627984
N        3.39406863       0.48116981       0.16767994
C        4.77135798       0.47988980       0.23540991
O        5.42540766       1.50060944       0.04318998
C        5.45480779      -0.75851968       0.54091980
C        6.02996761      -1.78294932       0.79410968
H        0.68636972      -1.31146950       0.42892983
H        0.89878962       0.51199980       0.03856999
H        2.96054889       1.37070944      -0.04898998
H        6.53779739      -2.69146889       1.01853960
