16
Properties=species:S:1:pos:R:3 atomization_energy=-1551.13 smiles=C.O.N.C.C.C.C.H.H.H.H.H.H.H.H.H pbc="F F F"
C        7.11808712       2.11817909      -0.02963999
O        6.16500774       2.92972890      -0.70575974
N        4.93923800       2.82841891      -0.03107999
C        4.05417829       3.51797867      -0.67533976
C        2.62665887       3.58560849      -0.19797992
C        2.32467917       4.99514805       0.21459991
C        1.40425940       5.77151783      -0.37280984
H        8.06895658       2.18237923      -0.56449978
H        6.78886750       1.07452957      -0.02039999
H        7.26340721       2.47736910       0.99418963
H        4.30320830       4.06917838      -1.59959937
H        2.48268900       2.91074879       0.65134974
H        1.98115918       3.25600861      -1.01858962
H        2.89171898       5.39083778       1.05601956
H        0.80535968       5.42038778      -1.20773953
H        1.22580947       6.78329753      -0.02059999
