16
Properties=species:S:1:pos:R:3 atomization_energy=-1493.05 smiles=N.C.C.N.C.C.H.H.H.H.H.H.H.H.H.H pbc="F F F"
N        2.56607893      -1.25597946      -0.21108992
C        1.99601922       0.03970999       0.15819994
C        3.10176885       1.08742962       0.23214991
N        4.32026842       0.71509971       0.98625962
C        3.30462880       1.98689921      -0.96503963
C        2.68577882       2.53630889       0.28705989
H        1.81224927      -1.93808926      -0.27317991
H        3.16938884      -1.57039935       0.54405981
H        1.50382944      -0.04189999       1.13389958
H        1.23389947       0.32169986      -0.57636976
H        4.07258838       0.34039988       1.89925927
H        4.78806836      -0.03817999       0.48067982
H        2.67071894       1.84477931      -1.83215934
H        4.31415847       2.29656921      -1.20911953
H        3.27960864       3.21974885       0.88373963
H        1.62938935       2.77874901       0.26440990
