20
Properties=species:S:1:pos:R:3 atomization_energy=-1916.61 smiles=C.C.C.C.C.C.N.H.H.H.H.H.H.H.H.H.H.H.H.H pbc="F F F"
C        1.04984962       0.10704996      -0.09404996
C        2.53987913       0.05926998      -0.04181999
C        3.36831873      -0.69010971      -1.06217960
C        2.75999904      -1.43645939      -2.20027910
C        3.44039866       0.82965968      -1.00057960
C        2.85329877       1.65902932      -2.11696916
N        4.67071818       1.41049943      -0.42579982
H        0.68261970       0.89538964       0.56969976
H        0.63739973      -0.84413965       0.25514991
H        0.64744977       0.29871987      -1.09040953
H        2.86276876      -0.03188999       0.99186964
H        4.22870826      -1.23913951      -0.68856973
H        1.83638930      -0.99179961      -2.57793901
H        2.52722900      -2.46007911      -1.88761923
H        3.47101856      -1.49340943      -3.03077874
H        1.96884920       1.21658954      -2.58010906
H        3.59694851       1.80151926      -2.90929890
H        2.56658890       2.64720898      -1.73977936
H        5.04689816       0.82092965       0.31510989
H        4.46475834       2.30863897       0.01056999
