15
Properties=species:S:1:pos:R:3 atomization_energy=-1494.41 smiles=N.C.O.N.C.C.C.H.H.H.H.H.H.H.H pbc="F F F"
N        1.53829940       2.74745893       1.14228960
C        2.38618895       2.10760919       0.29825990
O        2.06115917       1.09139955      -0.29538988
N        3.59463866       2.73326883       0.21433992
C        4.65282840       2.11142923      -0.53875978
C        5.79532781       3.07347873      -0.59346974
C        6.99134718       2.86276876      -0.02825999
H        1.58437938       3.75606860       1.14483953
H        0.60133977       2.36383896       1.13047961
H        3.86553847       3.21629873       1.05826960
H        4.29608852       1.87943928      -1.54782945
H        4.92296819       1.17113951      -0.04546998
H        5.62858782       3.99320850      -1.15014959
H        7.20979691       1.95444929       0.52569978
H        7.78526711       3.59910846      -0.11556995
