17
Properties=species:S:1:pos:R:3 atomization_energy=-1578.71 smiles=C.N.N.C.C.C.O.H.H.H.H.H.H.H.H.H.H pbc="F F F"
C        2.43070902      -1.20639953      -1.12752960
N        3.49962863      -0.51479980      -0.41460984
N        3.44421871       0.83435967      -0.46099981
C        4.53821803       1.40592946      -0.06826997
C        4.66317802       2.90745890      -0.00900000
C        3.59699847       3.62745863      -0.81819968
O        2.31416907       3.44741852      -0.22719992
H        2.57391886      -2.28829906      -1.05202957
H        2.43934909      -0.93858963      -2.18864915
H        1.45205940      -0.95607960      -0.70620971
H        3.50473859      -0.84651964       0.55269976
H        5.41306766       0.82742965       0.28226989
H        5.65771795       3.16716883      -0.38667986
H        4.61481823       3.19262880       1.04775956
H        3.55874858       3.27260872      -1.85315923
H        3.80304839       4.70195830      -0.83455964
H        2.14141905       2.48326911      -0.27197988
