12
Properties=species:S:1:pos:R:3 atomization_energy=-1276.17 smiles=N.C.C.C.O.C.O.H.H.H.H.H pbc="F F F"
N        0.79274968       0.15029995       0.19014993
C        2.14792920       0.01396999       0.03220999
C        3.06869883       0.97044961       0.18580993
C        4.50492847       0.66187971      -0.01364999
O        4.93874797      -0.43631982      -0.33523986
C        5.49274781       1.78770930       0.19174993
O        5.13341801       2.92227882       0.46701983
H        0.23917991      -0.49105981      -0.37434985
H        0.44723984       1.10652959       0.15996994
H        2.43882904      -1.00400961      -0.23458991
H        2.80476891       1.98309923       0.46468980
H        6.54481725       1.49017946       0.06636997
