18
Properties=species:S:1:pos:R:3 atomization_energy=-1753.95 smiles=C.N.C.O.C.C.C.H.H.H.H.H.H.H.H.H.H.H pbc="F F F"
C        1.45490948       3.01262880       0.20131992
N        2.80972898       2.58335908       0.43510983
C        3.42714875       1.68246938      -0.40740985
O        2.88981892       1.23678954      -1.41644940
C        4.83380795       1.28649943       0.04030998
C        5.39341811       0.16832993      -0.83756970
C        5.76915752       2.49406914       0.01736999
H        1.28210950       3.93710845       0.75744973
H        0.77483971       2.23405919       0.55760975
H        1.28666950       3.18292868      -0.86583963
H        3.22431883       2.77032897       1.33824942
H        4.75932834       0.90846961       1.06767953
H        5.48941804       0.48950980      -1.88064920
H        4.73567834      -0.70729971      -0.81932969
H        6.38143730      -0.14579995      -0.48604980
H        5.81214770       2.94081886      -0.98249963
H        6.78485745       2.20715917       0.30821988
H        5.43456779       3.27311868       0.71016973
