15
Properties=species:S:1:pos:R:3 atomization_energy=-1494.2 smiles=C.N.C.N.C.C.O.H.H.H.H.H.H.H.H pbc="F F F"
C        0.79908969       0.20204992       0.12998994
N        2.23978913       0.17736993      -0.11336996
C        2.81209888       1.30601953       0.06815997
N        4.15334827       1.37446943      -0.14078994
C        4.89613831       2.52017912       0.01935999
C        6.36309736       2.34465901      -0.27021990
O        4.43262850       3.60108851       0.37120984
H        0.30252988      -0.44818983      -0.59643975
H        0.35778986       1.20042949       0.03092999
H        0.58353975      -0.18169992       1.13193960
H        2.32215914       2.24324910       0.38439986
H        4.58357810       0.50758981      -0.42817984
H        6.59248716       1.33432945      -0.61957978
H        6.93196708       2.53566898       0.64364972
H        6.66054746       3.05490892      -1.04642958
