17
Properties=species:S:1:pos:R:3 atomization_energy=-1624.97 smiles=C.N.C.O.C.C.N.H.H.H.H.H.H.H.H.H.H pbc="F F F"
C        0.86679963       0.77311969       0.09848996
N        2.30214901       0.68574974       0.18416993
C        3.09490872       1.79458923      -0.03148998
O        2.64408890       2.91719888      -0.22922990
C        4.57537835       1.47906944       0.02829999
C        5.41897776       2.70451896      -0.30153989
N        6.84597713       2.38337899      -0.22868992
H        0.43575984      -0.13904995       0.51727980
H        0.58239978       0.87060964      -0.95257964
H        0.51050978       1.64478938       0.65404974
H        2.73333898      -0.22981990       0.18586993
H        4.78836813       0.67215975      -0.68326971
H        4.80590819       1.11829958       1.03796961
H        5.19798806       3.52484864       0.39082986
H        5.18641817       3.05960885      -1.31185948
H        7.09846735       2.17581912       0.73722974
H        7.38189692       3.21390865      -0.48238980
