14
Properties=species:S:1:pos:R:3 atomization_energy=-1410.15 smiles=C.C.C.C.C.O.H.H.H.H.H.H.H.H pbc="F F F"
C        0.93638962       0.00170000       0.99836962
C        0.29284989       0.97590962      -0.02695999
C       -1.21097946       0.77925967       0.08270997
C       -1.22423947      -0.75024971       0.09202997
C        0.27754991      -0.97333962      -0.01580999
O        0.74287969      -0.00914000      -1.06429956
H        2.02983918      -0.00719000       1.02372961
H        0.53381977       0.01117000       2.01405927
H        0.72967973       1.96756925      -0.14379994
H       -1.62521932       1.20348951       1.00207959
H       -1.74592930       1.18665953      -0.77985971
H       -1.76563927      -1.15966954      -0.76598970
H       -1.64502935      -1.15740954       1.01649962
H        0.69692972      -1.97362924      -0.12052995
