21
Properties=species:S:1:pos:R:3 atomization_energy=-2046.34 smiles=C.C.C.C.C.C.C.H.H.H.H.H.H.H.H.H.H.H.H.H.H pbc="F F F"
C        0.98157963       2.82309901      -0.57942978
C        2.46123908       2.88953884      -0.23388991
C        3.10746877       1.50361938      -0.26808988
C        4.58845819       1.54722941       0.06288997
C        4.91364808       1.74561931       1.52269940
C        5.50998759       0.64114975      -0.72841972
C        5.53833801       2.12317929      -0.96644959
H        0.54265982       3.82536860      -0.56020977
H        0.43988984       2.20093920       0.13965994
H        0.83048966       2.40525914      -1.57944933
H        2.57499909       3.34057869       0.75870969
H        2.96583877       3.55678872      -0.94338961
H        2.95671875       1.06633953      -1.26294948
H        2.60111891       0.83822967       0.44151984
H        5.99446764       1.75219935       1.70165929
H        4.48157824       0.93703963       2.12064916
H        4.51405832       2.69651905       1.88618926
H        5.08790804       0.01170000      -1.50508946
H        6.36009765       0.19268992      -0.22600990
H        6.40454731       2.67691897      -0.62149977
H        5.13383789       2.49097910      -1.90309925
