13
Properties=species:S:1:pos:R:3 atomization_energy=-1299.23 smiles=C.N.N.C.O.C.C.H.H.H.H.H.H pbc="F F F"
C        0.80995968      -0.06526997      -0.13102995
N        2.23741924      -0.03252999       0.14466995
N        2.90580891      -1.29040943       0.22021991
C        3.01493889       1.13120960       0.12718995
O        4.23583838       1.12240955       0.26435991
C        2.34730900       2.40158898      -0.07036997
C        1.80476929       3.46140852      -0.23505991
H        0.30515987       0.73556971       0.41629983
H        0.38610984      -1.02591959       0.17647993
H        0.65700972       0.08199997      -1.20419957
H        3.21679885      -1.39984941       1.19019948
H        3.78746845      -1.18569953      -0.29767989
H        1.33557950       4.40673830      -0.38041984
