12
Properties=species:S:1:pos:R:3 atomization_energy=-1273.24 smiles=C.C.C.C.O.C.H.H.H.H.H.H pbc="F F F"
C        0.96315964      -1.04125957      -0.06952997
C       -0.47710980      -1.50186946      -0.02832999
C       -1.29270943      -0.43353983      -0.00468000
C       -0.57127979       0.84796966      -0.03764999
O        0.34984987       1.17814953      -1.09048952
C        0.89491967       0.46556981       0.02020999
H        1.51166938      -1.45020943       0.78432970
H        1.44885946      -1.35907949      -0.99625963
H       -0.78874966      -2.53576890      -0.02903999
H       -2.37293904      -0.48739981       0.01379999
H       -0.92735964       1.63945938       0.60865977
H        1.56752933       0.95053961       0.70858969
