12
Properties=species:S:1:pos:R:3 atomization_energy=-1161.23 smiles=C.C.C.C.H.H.H.H.H.H.H.H pbc="F F F"
C        0.99216959      -0.01898999      -0.01613999
C        2.49248904       0.02684999      -0.00175000
C        3.20972878      -1.29220943      -0.00691000
C        3.17120865       1.18488954       0.01867999
H        0.55002978       0.98121962      -0.01326999
H        0.62115975      -0.55061980       0.86701966
H        0.63759977      -0.53960976      -0.91119964
H        2.50605892      -2.12814920       0.05550998
H        3.88783851      -1.36822940       0.84982965
H        3.78622849      -1.41140946      -0.92945966
H        2.66179903       2.14319925       0.02198999
H        4.25596836       1.20305954       0.02722999
