14
Properties=species:S:1:pos:R:3 atomization_energy=-1425.52 smiles=C.N.C.C.C.C.O.H.H.H.H.H.H.H pbc="F F F"
C        1.01759960      -0.02823999      -0.02355999
N        2.47331894       0.00929000      -0.04281998
C        2.96069877       1.38567949       0.00000000
C        4.40469846       1.38567949       0.00000000
C        5.59485769       1.38567949       0.00000000
C        7.03522708       1.37625946       0.00608000
O        7.67199712       2.30704904      -0.46706982
H        0.67979971      -1.06868962      -0.05523998
H        0.59009979       0.49076981      -0.88762964
H        0.62177973       0.41794983       0.89451967
H        2.80779890      -0.42945982      -0.89998964
H        2.59507886       1.88521930       0.90468962
H        2.58753895       1.94842930      -0.86368965
H        7.50583699       0.48853981       0.45693983
