16
Properties=species:S:1:pos:R:3 atomization_energy=-1552.34 smiles=N.C.C.O.C.C.C.H.H.H.H.H.H.H.H.H pbc="F F F"
N        2.65577891      -0.73591970      -1.19394950
C        2.28670912      -0.01810999       0.02996999
C        2.83780891       1.41189949       0.01999999
O        4.26832855       1.35912945       0.03702999
C        4.83696814       2.66564885      -0.00455000
C        6.29879730       2.55435890       0.00815000
C        7.49716689       2.46571897       0.01708999
H        2.49293895      -1.73236927      -1.05918960
H        3.66663861      -0.62926974      -1.31658943
H        2.69708882      -0.56155981       0.88817966
H        1.19635951       0.00055000       0.11977995
H        2.48645908       1.94335920       0.91160962
H        2.49398890       1.94839927      -0.87245967
H        4.49835827       3.23905876       0.86566969
H        4.50935839       3.18027870      -0.91472964
H        8.55901668       2.37896899       0.02432999
