20
Properties=species:S:1:pos:R:3 atomization_energy=-1851.04 smiles=C.N.C.C.C.C.O.H.H.H.H.H.H.H.H.H.H.H.H.H pbc="F F F"
C        2.07262914      -1.40556950       1.26672953
N        3.39162858      -1.29375951       0.63762973
C        3.43519862      -2.13305907      -0.56211979
C        3.68370857       0.11735995       0.33262988
C        5.10511805       0.38498984      -0.17252994
C        6.18007746      -0.08923996       0.79335969
O        7.45575731       0.27152988       0.26953990
H        2.03792917      -0.82771970       2.19757916
H        1.86165926      -2.44625893       1.53926936
H        1.26928956      -1.05137956       0.60980977
H        3.17674884      -3.16982865      -0.31583988
H        4.44466823      -2.16882904      -0.98473964
H        2.74414885      -1.78320935      -1.33775952
H        3.54782869       0.71249969       1.24647957
H        2.96660888       0.50818979      -0.40211986
H        5.22452776       1.46400943      -0.33524986
H        5.26564816      -0.06770997      -1.15767953
H        6.15764774      -1.17616948       0.91737962
H        6.06475753       0.38543984       1.77334925
H        8.12056690      -0.08919996       0.88112965
