16
Properties=species:S:1:pos:R:3 atomization_energy=-1595.56 smiles=N.C.C.O.C.C.C.H.H.H.H.H.H.H.H.H pbc="F F F"
N        1.00755959       0.03548999      -0.14314995
C        2.45337896      -0.02942999       0.07006997
C        3.01135881       1.06844952       0.97057963
O        4.28191810       0.58932975       1.44501948
C        4.16951841      -0.79336972       1.43367946
C        5.14004776      -1.56463938       1.93218926
C        2.90440897      -1.28166944       0.80360970
H        0.71423971      -0.73702970      -0.74091970
H        0.77162968       0.89192968      -0.64265976
H        2.95837884       0.01504999      -0.90530967
H        2.37146895       1.26063952       1.83998931
H        3.15612883       2.00846925       0.42967982
H        5.06325780      -2.64602908       1.92680930
H        6.02772742      -1.11961953       2.36870896
H        3.06106883      -2.11993910       0.11671996
H        2.19242908      -1.57892941       1.58074934
