20
Properties=species:S:1:pos:R:3 atomization_energy=-1847.52 smiles=C.N.C.C.C.O.C.H.H.H.H.H.H.H.H.H.H.H.H.H pbc="F F F"
C        2.60278909      -1.74782935       0.08231996
N        3.77168841      -0.91098965      -0.15730994
C        3.41765857       0.51139979      -0.09580997
C        4.66214800       1.36081944      -0.36019987
C        4.37126810       2.85161900      -0.22235992
O        3.40841870       3.24243874      -1.20077948
C        3.12557883       4.63435826      -1.13057953
H        2.89508886      -2.80140887       0.03904999
H        1.82828934      -1.58173937      -0.67315974
H        2.18112918      -1.56357934       1.07539961
H        4.14690827      -1.12051959      -1.08280957
H        3.01800875       0.75047971       0.89681967
H        2.64385903       0.73857971      -0.83875970
H        5.02800814       1.15719960      -1.37431942
H        5.45864776       1.08915961       0.34210987
H        5.29700789       3.41740876      -0.37936986
H        3.98919845       3.07427888       0.78085970
H        2.37842901       4.87185799      -1.89186924
H        4.02837843       5.21824774      -1.33217946
H        2.71952889       4.89374823      -0.14851994
