15
Properties=species:S:1:pos:R:3 atomization_energy=-1425.93 smiles=C.O.C.N.N.C.C.H.H.H.H.H.H.H.H pbc="F F F"
C        3.24787874      -0.41329983       1.55786933
O        2.33619910       0.53215981       0.99126959
C        2.86097898       1.38029941       0.07312998
N        4.09344836       1.35665950      -0.30313989
N        4.35041847       2.31218903      -1.21946953
C        5.35312788       1.76545936      -2.13565909
C        5.75046785       2.70239888      -1.03918957
H        2.69541889      -1.02481962       2.27675919
H        4.05296837       0.10240996       2.09064912
H        3.65069860      -1.07168958       0.78192972
H        2.08491918       2.07492914      -0.29124988
H        5.31528778       2.14872909      -3.14685868
H        5.61272779       0.71751970      -2.04793915
H        6.28953775       2.30805912      -0.18617992
H        5.98437741       3.72613858      -1.30003953
