12
Properties=species:S:1:pos:R:3 atomization_energy=-1274.29 smiles=N.C.C.O.C.C.O.H.H.H.H.H pbc="F F F"
N        1.12410951      -0.03112999       0.26529988
C        2.51459907      -0.04425998       0.17090994
C        3.14495888      -1.40476949       0.32365988
O        2.44617894      -2.41776897       0.31856988
C        3.22642882       1.07279958      -0.04105999
C        4.69303839       1.19878946      -0.19413993
O        5.45728770       0.25596991      -0.32624987
H        0.67402972       0.60843973      -0.38241985
H        0.76061971      -0.98703964       0.17221993
H        4.23336831      -1.45656944       0.45059981
H        2.70662896       2.02338921      -0.11063996
H        5.05750818       2.24016914      -0.19819993
