14
Properties=species:S:1:pos:R:3 atomization_energy=-1455.26 smiles=C.N.C.O.C.C.C.H.H.H.H.H.H.H pbc="F F F"
C        3.04204886      -1.28567948      -0.00155000
N        2.42952912       0.01781999       0.00036000
C        3.09278889       1.21425951      -0.00001000
O        2.48805912       2.27990904      -0.00048000
C        4.53874843       1.20939949       0.00000000
C        5.72890766       1.20939949       0.00000000
C        7.17290709       1.20939949       0.00000000
H        2.25371908      -2.04190919       0.00280000
H        3.66666864      -1.39581943       0.88892965
H        3.65783856      -1.39683948      -0.89803963
H        1.42116938       0.10168996      -0.00146000
H        7.56702681       2.23021922      -0.01174000
H        7.56685725       0.68870972      -0.87820967
H        7.56685725       0.70904970       0.88994963
