13
Properties=species:S:1:pos:R:3 atomization_energy=-1359.63 smiles=N.C.N.C.C.C.O.H.H.H.H.H.H pbc="F F F"
N        1.13078960       0.04992998       0.38342984
C        2.38257910       0.06436997       0.09996996
N        3.20770862       1.14518951       0.01451999
C        4.39437811       0.81237966      -0.75920968
C        4.56001844      -0.71727973      -0.64249973
C        3.17212865      -1.16476954      -0.28109989
O        2.71885895      -2.29048904      -0.24900990
H        0.80371965      -0.92824961       0.34314985
H        2.74676880       2.03731916      -0.13004995
H        4.23819818       1.09608951      -1.80627924
H        5.27569801       1.34129947      -0.38497984
H        4.89272830      -1.15922960      -1.58400934
H        5.24102770      -0.97740960       0.17278993
