16
Properties=species:S:1:pos:R:3 atomization_energy=-1614.05 smiles=C.C.C.N.C.C.C.H.H.H.H.H.H.H.H.H pbc="F F F"
C        0.87441965      -0.13749994      -0.03115999
C        2.33219915       0.21303992       0.20220992
C        3.48403860      -0.65935974      -0.45839982
N        4.34706852       0.58798974      -0.19548992
C        3.07198872       1.24707948      -0.75111969
C        3.04268877       0.70107975      -2.12981913
C        3.32209870      -0.59292975      -1.93102929
H        0.22881991       0.67629975       0.31505986
H        0.60670975      -1.03895957       0.52995980
H        0.64216974      -0.32005987      -1.08448959
H        2.47270905       0.40666983       1.27767945
H        3.80880860      -1.59171932       0.00141000
H        4.51989827       0.77686971       0.79012966
H        2.96289885       2.32010920      -0.59967974
H        2.86205895       1.22460951      -3.05289885
H        3.42580862      -1.38609950      -2.65146884
