13
Properties=species:S:1:pos:R:3 atomization_energy=-1312.18 smiles=N.C.C.C.O.N.C.H.H.H.H.H.H pbc="F F F"
N        1.02703956      -0.07955997      -0.36091987
C        2.34894915       0.06128998      -0.02938999
C        3.08747883       1.16947955       0.04630998
C        4.51201847       1.33136948       0.41008983
O        4.74516801       2.75416892       0.42240984
N        3.57068864       3.43399853      -0.01342999
C        2.66445885       2.53629905      -0.21446991
H        0.57381976      -0.89762965       0.04312998
H        0.45859982       0.76022973      -0.28229988
H        2.81731886      -0.89920962       0.18471993
H        5.17801806       0.88249968      -0.33168988
H        4.73298798       0.93720964       1.40548939
H        1.64333936       2.75257898      -0.55464978
