14
Properties=species:S:1:pos:R:3 atomization_energy=-1414.1 smiles=N.C.C.C.C.O.O.H.H.H.H.H.H.H pbc="F F F"
N        2.01457919      -0.55482975      -1.13800955
C        2.97465875      -0.28269989      -0.08181997
C        3.09044877       1.19546954       0.08693997
C        4.23552852       1.87590929      -0.08508996
C        4.39465820       3.32949857       0.10264996
O        3.28673877       4.05003829      -0.14910993
O        5.46527802       3.82512838       0.41233984
H        1.82699929      -1.55692940      -1.16370949
H        2.43811898      -0.33601988      -2.03953917
H        3.93654853      -0.74995972      -0.32051987
H        2.61882903      -0.72036972       0.85672966
H        2.17880924       1.69411938       0.40672985
H        5.16253804       1.36542941      -0.32787987
H        2.55737906       3.53278849      -0.53636976
