17
Properties=species:S:1:pos:R:3 atomization_energy=-1557.08 smiles=C.O.N.C.C.N.C.H.H.H.H.H.H.H.H.H.H pbc="F F F"
C        1.47008947      -0.07567997       0.01686999
O        2.12505915       0.92918960       0.79044968
N        2.71564904       1.82217926      -0.11833995
C        2.01222924       3.09384868      -0.18257993
C        4.09227830       1.80749926      -0.04424998
N        4.88768824       2.75525899      -0.40748984
C        6.29514758       2.43354900      -0.19692993
H        1.04903957      -0.81376969       0.70558973
H        2.18050920      -0.58301976      -0.64407976
H        0.65267971       0.36110984      -0.56590981
H        0.93659963       2.93013893      -0.30100987
H        2.35311917       3.68134852      -1.04087962
H        2.17518905       3.67383863       0.73152970
H        4.47460835       0.85281966       0.36386984
H        6.88989740       3.34739870      -0.30166987
H        6.64679743       1.71627937      -0.94480960
H        6.48136754       2.03606924       0.80770971
