20
Properties=species:S:1:pos:R:3 atomization_energy=-1901.58 smiles=C.C.C.C.N.C.C.H.H.H.H.H.H.H.H.H.H.H.H.H pbc="F F F"
C        1.00727963       0.03604999      -0.04801998
C        2.49403912      -0.07086997      -0.06360998
C        3.19114862      -0.77671970      -1.19673953
C        3.29899879       0.71959973      -1.06585959
N        4.53942821       1.42185938      -0.66465971
C        5.53274787       0.63249977       0.06276998
C        5.17572790       2.07279921      -1.81327928
H        0.69912973       0.90343964       0.54399976
H        0.57077980      -0.85907968       0.40586984
H        0.58965979       0.14475995      -1.05438956
H        2.88690879      -0.19955993       0.93690961
H        2.59265900      -1.16366949      -2.01425924
H        4.03544850      -1.40741947      -0.95115965
H        2.69687888       1.29902945      -1.76795933
H        5.10795778       0.18679993       0.96733963
H        6.35546736       1.27329948       0.40072986
H        5.96000777      -0.16649993      -0.55318979
H        4.47750814       2.76166896      -2.30183916
H        5.51465773       1.34274949      -2.55703891
H        6.03527768       2.67402902      -1.49634946
