13
Properties=species:S:1:pos:R:3 atomization_energy=-1349.82 smiles=C.N.C.C.N.C.O.H.H.H.H.H.H pbc="F F F"
C        1.23337954       0.06119998      -0.26026990
N        2.61989892       0.40053985      -0.00167000
C        3.59603860      -0.68169970       0.12661995
C        3.43323876      -1.45320939       1.37240952
N        3.27600864      -2.08369916       2.33520921
C        2.97493884       1.67067932       0.39944984
O        4.08977845       2.00299921       0.77863969
H        0.64340976       0.96278959      -0.44791984
H        0.82084966      -0.45256983       0.61264976
H        1.18033951      -0.59215976      -1.13541950
H        4.61054828      -0.27035988       0.08378997
H        3.47971869      -1.33737951      -0.74358968
H        2.14858905       2.39691909       0.32365988
