15
Properties=species:S:1:pos:R:3 atomization_energy=-1447.01 smiles=N.C.C.C.C.O.N.H.H.H.H.H.H.H.H pbc="F F F"
N        1.16606954       0.08951996       0.42646982
C        2.40961917       0.03969999       0.08145997
C        3.05644890      -1.32230952      -0.07156997
C        4.08711838      -1.29867946      -1.18874958
C        4.90457829      -0.01970999      -1.10463963
O        4.01700839       1.09804962      -1.23152957
N        3.20443866       1.15297961      -0.08218997
H        0.85830969       1.05917963       0.52145979
H        2.29649907      -2.08714916      -0.26170989
H        3.54151865      -1.56148941       0.88255967
H        4.73307832      -2.18075926      -1.13509954
H        3.56053862      -1.32415950      -2.15100915
H        5.47450779       0.05092998      -0.17014993
H        5.61484788       0.02656999      -1.93579923
H        2.70098885       2.03489918      -0.04634998
