16
Properties=species:S:1:pos:R:3 atomization_energy=-1577.48 smiles=O.C.C.C.C.N.C.H.H.H.H.H.H.H.H.H pbc="F F F"
O        1.01837962      -0.02182999       0.07572997
C        2.45926913       0.00115000      -0.00382000
C        3.10671884       1.02893962      -0.97963964
C        2.70027904       0.03445999      -2.10471911
C        3.14808880      -0.99202961      -1.01366961
N        4.60097836      -0.71476973      -0.86982968
C        4.58971833       0.75386972      -0.81825967
H        0.78243967       0.78559968       0.56321977
H        2.87378882      -0.00910000       1.01182960
H        2.72955880       2.04896917      -1.01185963
H        3.28429872       0.06454997      -3.03081885
H        1.63781936       0.01809999      -2.37369906
H        2.82412877      -2.02884916      -1.07974955
H        5.01040803      -1.08981958      -0.01427999
H        5.18174802       1.17838949      -1.63486935
H        4.97441802       1.12708954       0.13678994
