18
Properties=species:S:1:pos:R:3 atomization_energy=-1739.24 smiles=N.C.C.C.C.C.O.H.H.H.H.H.H.H.H.H.H.H pbc="F F F"
N        1.01041958       0.05002998      -0.06246997
C        2.46352899       0.02473999       0.03722999
C        3.00523878       1.12722958       0.93659963
C        4.43205823       0.66205975       1.19345947
C        4.31957855      -0.85135967       1.37382952
C        3.01247891      -1.26281953       0.68391971
O        3.23466870      -2.27571908      -0.29102988
H        0.70092974      -0.77941971      -0.57368975
H        0.71217974       0.85739966      -0.60727977
H        2.87462883       0.13052995      -0.97510961
H        2.45135905       1.18257958       1.88040924
H        2.97165878       2.11243919       0.46040982
H        5.05998810       0.88561963       0.32219986
H        4.87948798       1.15130955       2.06329919
H        5.20011773      -1.36937940       0.97944964
H        4.25149856      -1.08419953       2.44369903
H        2.31603910      -1.66691933       1.42852938
H        3.91035856      -1.95215925      -0.91075964
