9
Properties=species:S:1:pos:R:3 atomization_energy=-1084.82 smiles=N.C.C.C.O.C.N.H.H pbc="F F F"
N        0.94591961      -0.01071999      -0.00473000
C        2.10676918      -0.03105999      -0.00150000
C        3.53289850      -0.01111000       0.00233000
C        4.34542837       1.09422958       0.00091000
O        5.63815773       0.65744972       0.00588000
C        5.52420797      -0.70119973       0.01004000
N        4.29132855      -1.15850957       0.00818000
H        4.19450829       2.16388915      -0.00302000
H        6.44760764      -1.26436947       0.01443000
