15
Properties=species:S:1:pos:R:3 atomization_energy=-1442.47 smiles=C.O.C.C.C.N.N.H.H.H.H.H.H.H.H pbc="F F F"
C        1.73694933       0.18088992       1.29412955
O        1.70357928       1.49155945       0.72097973
C        2.85266895       1.92060927       0.13233996
C        2.68905888       3.32296874      -0.34122986
C        1.50669946       3.92417849      -0.53052981
N        3.90381839       1.16277952       0.06019997
N        4.98720819       1.67611933      -0.57414975
H        0.76717969      -0.00501000       1.76435932
H        2.51045906       0.11658996       2.06598916
H        1.89400926      -0.57278975       0.51639980
H        3.60965869       3.85843838      -0.54372976
H        0.56534976       3.41511860      -0.34951986
H        1.46047944       4.95069788      -0.87838964
H        5.76507783       1.01620957      -0.49650982
H        4.80955790       1.76163931      -1.57849944
