14
Properties=species:S:1:pos:R:3 atomization_energy=-1412.8 smiles=N.C.O.C.C.C.O.H.H.H.H.H.H.H pbc="F F F"
N        0.95327960       0.31848986      -0.02369999
C        2.18610919       0.16755994      -0.57773979
O        2.43461914      -0.66681973      -1.43498944
C        3.21835876       1.08168959      -0.04790998
C        4.18975841       1.75975932      -0.98540964
C        3.11502886       2.56095888      -0.31909987
O        3.54428849       3.41263869       0.75235971
H        0.77204968       0.98306958       0.71576972
H        0.21663991      -0.30401990      -0.32391987
H        3.62377864       0.77456972       0.91039963
H        4.09525833       1.55740933      -2.04680922
H        5.21134799       1.87553925      -0.64614976
H        2.29634918       2.90989894      -0.94267961
H        3.95448852       4.22628840       0.40943982
