17
Properties=species:S:1:pos:R:3 atomization_energy=-1606.43 smiles=C.O.C.C.C.N.N.H.H.H.H.H.H.H.H.H.H pbc="F F F"
C        5.67490776       1.01186960       1.85690925
O        4.54043804       1.85658929       2.02141927
C        3.85583836       2.09067915       0.79143970
C        2.47740897       2.64312904       1.13058950
C        4.59886837       3.12157887      -0.07985996
N        4.47396843       3.09711890      -1.43619949
N        5.33286770       4.04600831       0.45647983
H        6.14126740       0.87327968       2.83607893
H        6.40968730       1.46439940       1.18497950
H        5.36996796       0.03223999       1.47647938
H        3.74072862       1.15481949       0.23180991
H        2.55672905       3.56055855       1.72502933
H        1.91474925       1.92240927       1.73342931
H        1.90246930       2.87012876       0.22737991
H        3.59609865       2.77067895      -1.81970931
H        4.81334792       3.95567852      -1.85986922
H        5.31636776       3.90230844       1.47935937
