18
Properties=species:S:1:pos:R:3 atomization_energy=-1717.43 smiles=C.O.C.C.C.C.N.H.H.H.H.H.H.H.H.H.H.H pbc="F F F"
C        1.17078953      -0.17007993      -0.33416985
O        2.56604890       0.10518996      -0.29832989
C        2.96484887       1.40876944      -0.09371996
C        2.15112927       2.46847897       0.04498998
C        4.46953800       1.56731939      -0.05796998
C        5.09750824       0.82873969       1.13030954
N        6.55112754       1.00793960       1.15944951
H        1.04459961      -1.24626950      -0.48556980
H        0.69100971       0.34664987      -1.17147953
H        0.69460973       0.09380996       0.61575974
H        1.07065957       2.39735915       0.01415999
H        2.55753903       3.46512864       0.19530993
H        4.74376808       2.62943906      -0.01122000
H        4.88382808       1.18224953      -0.99874964
H        4.87556826      -0.24324990       1.07618953
H        4.67820838       1.20471950       2.07028914
H        6.95351717       0.61563975       0.30866989
H        6.93498748       0.46193980       1.92998918
