16
Properties=species:S:1:pos:R:3 atomization_energy=-1646.91 smiles=C.C.C.C.N.C.C.H.H.H.H.H.H.H.H.H pbc="F F F"
C        0.93403967       0.00080000      -0.16043994
C        2.41213895       0.02348999      -0.01407999
C        3.22844873       1.09494960       0.01141999
C        4.64766822       0.75595972       0.16387994
N        5.31745783      -0.00927000      -0.87462966
C        4.67300834      -0.76189972       0.19650992
C        3.23691874      -1.24350950       0.09574996
H        0.58966976      -0.98843963      -0.48434982
H        0.60304975       0.73009974      -0.90180964
H        0.45620984       0.23034991       0.80179967
H        2.89016891       2.12264914      -0.05613998
H        5.24567816       1.29759948       0.88449965
H        4.75376797      -0.01888999      -1.72633931
H        5.29671771      -1.27714955       0.90955962
H        2.95809875      -1.80532934       0.99402959
H        3.10573878      -1.87808931      -0.78703967
