23
Properties=species:S:1:pos:R:3 atomization_energy=-2192.0 smiles=C.C.C.C.C.C.C.H.H.H.H.H.H.H.H.H.H.H.H.H.H.H.H pbc="F F F"
C        2.00160924      -1.25232949       0.34956985
C        3.42103855      -0.85925965      -0.07163997
C        3.66626844      -1.28956955      -1.51829938
C        3.62258864       0.65561975       0.13543995
C        5.02055780       1.20393955      -0.21410991
C        5.04900815       2.71958894       0.00521000
C        6.12914743       0.54441976       0.60660977
H        1.81922925      -0.98789958       1.39645946
H        1.85063932      -2.33225920       0.24816991
H        1.24948950      -0.74597970      -0.26487991
H        4.11548848      -1.40847939       0.57495980
H        3.03625887      -0.72380969      -2.21270919
H        3.44245869      -2.35365916      -1.64995939
H        4.71119817      -1.14177951      -1.80645928
H        3.40166859       0.89653964       1.18424951
H        2.87638884       1.19495958      -0.46370981
H        5.22412807       1.02611956      -1.27639949
H        4.86547804       2.97387879       1.05487959
H        4.28482849       3.21534871      -0.60298976
H        6.02150745       3.13588884      -0.27897990
H        5.94008772       0.64310973       1.68088927
H        7.09904721       1.00597962       0.39103983
H        6.21947747      -0.52041978       0.37181985
