20
Properties=species:S:1:pos:R:3 atomization_energy=-1916.82 smiles=C.C.C.C.C.C.N.H.H.H.H.H.H.H.H.H.H.H.H.H pbc="F F F"
C        1.06126956      -0.07655997       0.02078999
C        2.55114900      -0.03190999      -0.01648999
C        3.35412862      -0.68411975      -1.12242961
C        2.71453904      -1.41113947      -2.25601908
C        3.26129873       0.82556965      -1.04147960
C        4.44783802       1.64106938      -0.64471973
N        5.26607813       1.84104922      -1.83026925
H        0.68424976       0.67229973       0.72467972
H        0.72220972      -1.06057956       0.35912986
H        0.60839974       0.12695995      -0.95426963
H        2.96533889      -0.08917996       0.98523963
H        4.28545831      -1.15981955      -0.83215966
H        1.85554931      -0.87479967      -2.66974898
H        2.37820897      -2.39903917      -1.92737919
H        3.43945873      -1.55087938      -3.06392876
H        2.65054884       1.34527950      -1.77355932
H        5.03708803       1.14594954       0.13488995
H        4.11791843       2.60943903      -0.25554990
H        5.57260763       0.93300965      -2.17604925
H        6.11065760       2.34672913      -1.57025943
