14
Properties=species:S:1:pos:R:3 atomization_energy=-1444.69 smiles=C.O.C.C.C.C.N.H.H.H.H.H.H.H pbc="F F F"
C        2.43736905      -0.92416966      -0.85441969
O        2.01119922       0.35188985      -0.39318985
C        3.11197868       1.21089947      -0.03153999
C        3.52386858       2.21185909      -1.07231953
C        2.75384897       2.66716889       0.14228994
C        3.42718861       3.42678867       1.15437954
N        3.98348845       4.03795844       1.96891923
H        1.55399933      -1.50407937      -1.13405956
H        2.97068882      -1.45410946      -0.05960997
H        3.08120890      -0.81545968      -1.73235930
H        3.88283856       0.80592970       0.61914975
H        3.00367886       2.20302901      -2.02312919
H        4.57725822       2.45656893      -1.14751954
H        1.71199932       2.93284872      -0.01104999
