12
Properties=species:S:1:pos:R:3 atomization_energy=-1231.06 smiles=N.N.C.C.C.C.H.H.H.H.H.H pbc="F F F"
N        0.94979964       0.02436999      -0.23468991
N        2.34863903       0.00059000      -0.13361995
C        3.14597880       1.10453958      -0.07048997
C        4.45143828       0.67482973       0.04867998
C        4.42778828      -0.74183970       0.04895998
C        3.10861889      -1.12836962      -0.07003997
H        0.55952980       0.83697969       0.23693990
H        0.53283978      -0.78102971       0.22595991
H        2.73169882       2.10134922      -0.12116995
H        5.32313780       1.31118954       0.11904995
H        5.27867804      -1.40792943       0.11963996
H        2.66183890      -2.11106915      -0.12023995
