18
Properties=species:S:1:pos:R:3 atomization_energy=-1739.17 smiles=N.C.C.C.C.O.C.H.H.H.H.H.H.H.H.H.H.H pbc="F F F"
N        1.01877963       0.01440000      -0.04848998
C        2.46795891      -0.00022000       0.04333998
C        3.01240876       1.12161950       0.92054966
C        4.43674806       0.66018972       1.18301952
C        4.30015812      -0.84601964       1.40595949
O        5.43224786      -1.53878943       0.90849964
C        3.01132879      -1.27643949       0.69339973
H        0.69861971      -0.74745969      -0.64490974
H        0.70519975       0.87912967      -0.48717980
H        2.88996881       0.09403997      -0.96543964
H        2.45941901       1.19586949       1.86550921
H        2.97812881       2.09693923       0.42517984
H        5.07919808       0.87462966       0.32023988
H        4.87781805       1.16143952       2.04960921
H        4.22048831      -1.06629953       2.47697900
H        5.49468773      -1.37737944      -0.04791998
H        3.17120865      -2.06699925      -0.04696998
H        2.30528902      -1.66079929       1.43922948
