18
Properties=species:S:1:pos:R:3 atomization_energy=-1769.35 smiles=C.C.C.C.C.N.C.H.H.H.H.H.H.H.H.H.H.H pbc="F F F"
C        1.00318959       0.04663998       0.00498000
C        2.52370898       0.00927000       0.08070996
C        3.08226870      -1.13037956       0.93455966
C        3.93272848      -0.30341988       1.88045920
C        4.56610820       0.77972970       0.97352963
N        3.10174866       1.19945953       0.77200969
C        2.99995874       0.86381966       2.26591904
H        0.62868976      -0.84124964      -0.51662980
H        0.66535974       0.92897966      -0.54875980
H        0.53250979       0.06971997       0.99306960
H        2.91912897      -0.04561998      -0.94143966
H        3.69372865      -1.82093931       0.34442986
H        2.31213906      -1.69509931       1.47059944
H        4.53545803      -0.78396969       2.64787892
H        5.08965822       0.43612982       0.07429997
H        5.19295809       1.53180945       1.47046949
H        3.42141856       1.62755932       2.93349873
H        2.00285917       0.60697975       2.63834887
