14
Properties=species:S:1:pos:R:3 atomization_energy=-1469.22 smiles=C.N.C.C.C.C.O.H.H.H.H.H.H.H pbc="F F F"
C        3.06967888      -1.08692963       0.42799983
N        2.41364915       0.09440996      -0.08922996
C        3.03738880       1.28666950      -0.04342999
C        2.56515893       2.56867895      -0.21245992
C        3.67788855       3.43158877      -0.05867998
C        4.75692817       2.61740891       0.19259992
O        4.37569803       1.31426950       0.20312993
H        2.43652904      -1.96242926       0.25206990
H        3.23646883      -1.00197960       1.50696945
H        4.02713848      -1.26607953      -0.07240997
H        1.40039949       0.07910997      -0.04034998
H        1.54342943       2.84591884      -0.42535984
H        3.69283842       4.50998822      -0.12605995
H        5.80715760       2.79674881       0.37377987
