14
Properties=species:S:1:pos:R:3 atomization_energy=-1453.52 smiles=C.O.C.C.C.C.N.H.H.H.H.H.H.H pbc="F F F"
C        1.28638954      -0.29374989       0.47501980
O        2.66454894      -0.01847999       0.24831990
C        3.05496872       1.29816950       0.11702995
C        2.23440918       2.36383896       0.13413995
C        4.54331815       1.45319943      -0.10546996
C        5.27820770       1.35358952       1.16457953
N        5.88315776       1.29960943       2.15412923
H        1.17019958      -1.37801947       0.56321977
H        0.67639974       0.04225998      -0.36974986
H        0.94541961       0.15995994       1.41116949
H        1.16323952       2.28589914       0.27774988
H        2.62203894       3.37172873       0.01312999
H        4.76450819       2.41661909      -0.58042977
H        4.88951815       0.68122973      -0.80297969
