12
Properties=species:S:1:pos:R:3 atomization_energy=-1243.33 smiles=C.O.C.C.O.N.C.H.H.H.H.H pbc="F F F"
C        3.07340884      -1.13400960       0.54441976
O        2.31822908       0.04694998       0.29918990
C        3.07338891       1.15810951       0.15447994
C        2.53406895       2.39276899      -0.08720996
O        3.53197851       3.30778875      -0.18430993
N        4.75555800       2.67708904      -0.00521000
C        4.46124842       1.38865940       0.19669993
H        2.37158907      -1.96679926       0.64495976
H        3.63743859      -1.05380958       1.47984939
H        3.74151842      -1.35572941      -0.29465989
H        1.53118934       2.77124897      -0.21044991
H        5.27140788       0.69483972       0.36227987
