12
Properties=species:S:1:pos:R:3 atomization_energy=-1328.72 smiles=N.C.C.C.C.C.O.H.H.H.H.H pbc="F F F"
N        0.99999962       0.00000000       0.00000000
C        2.15100915       0.00000000       0.00000000
C        3.55700851       0.00000000       0.00000000
C        4.31208834      -1.09777962      -0.01821999
C        5.73652756      -0.69974971      -0.01429999
C        5.62056772       0.79714970      -0.27762989
O        4.26651833       1.20033953       0.01173000
H        3.95298841      -2.11644911      -0.01865999
H        6.19134758      -0.90538966       0.95994961
H        6.32263756      -1.19840958      -0.79140967
H        5.82719775       1.03125961      -1.32833949
H        6.31180750       1.37555950       0.34414987
