16
Properties=species:S:1:pos:R:3 atomization_energy=-1495.0 smiles=N.C.C.C.C.N.H.H.H.H.H.H.H.H.H.H pbc="F F F"
N        1.55564945      -0.36295987      -0.94825960
C        2.60178885      -0.16860994       0.04347998
C        2.96584886       1.27808948       0.09769996
C        4.20230835       1.75648936      -0.12001995
C        4.56622831       3.20339880      -0.06458997
N        5.61000766       3.39764870       0.92926966
H        1.31605953      -1.35210947      -0.98416962
H        1.93355928      -0.13406995      -1.86695923
H        3.46530855      -0.79600967      -0.20249992
H        2.23309907      -0.48228982       1.02550962
H        2.15710926       1.96357926       0.34287986
H        5.01143805       1.07140962      -0.36516985
H        3.70174849       3.83026837       0.17997992
H        4.93641794       3.51773869      -1.04603960
H        5.23159808       3.16424885       1.84641921
H        5.84628762       4.38726842       0.96898963
