17
Properties=species:S:1:pos:R:3 atomization_energy=-1609.24 smiles=C.N.C.N.C.C.O.H.H.H.H.H.H.H.H.H.H pbc="F F F"
C        0.83458967       0.45363981      -0.84786967
N        2.25451922       0.29014988      -1.06125959
C        3.19270879       1.14207953      -0.52765980
N        3.01951870       2.41334913      -0.38763985
C        4.53579817       0.52952982      -0.08325997
C        4.38269820      -0.13190995       1.27548946
O        4.92936781      -0.46263980      -1.02849962
H        0.29642990      -0.40494984      -1.26093954
H        0.46284981       1.35378949      -1.34588950
H        0.60918979       0.51643979       0.22136991
H        2.55750901      -0.68428975      -1.03878962
H        2.10637920       2.66882898      -0.76826970
H        5.30413777       1.30905949      -0.04402998
H        3.70181864      -0.98904958       1.22265950
H        3.99461853       0.56810976       2.02131922
H        5.34679789      -0.51850979       1.62197939
H        5.06034792       0.01657999      -1.86713927
