13
Properties=species:S:1:pos:R:3 atomization_energy=-1354.89 smiles=N.C.N.C.C.C.O.H.H.H.H.H.H pbc="F F F"
N        1.25166952       0.01539000       0.68979972
C        2.38097907       0.08235997       0.08197996
N        3.00613884       1.27227955      -0.11279996
C        2.64943883       2.63229898       0.24886990
C        3.96910834       3.07940877      -0.41640985
C        4.18616824       1.58470943      -0.71827972
O        5.02444825       0.90330963      -1.25928954
H        0.94772964      -0.96415963       0.73517973
H        2.91412877      -0.79615968      -0.31682987
H        2.59443895       2.79417882       1.32868947
H        1.73819925       2.98685871      -0.24022991
H        3.85749844       3.70013862      -1.30845944
H        4.71302808       3.50777868       0.25929991
