13
Properties=species:S:1:pos:R:3 atomization_energy=-1349.1 smiles=N.C.C.O.N.C.C.H.H.H.H.H.H pbc="F F F"
N        0.95784964       0.00001000       0.04148999
C        2.29572920      -0.01064000       0.01849999
C        3.08698880       1.11541960       0.00601000
O        2.75198903       2.40224908       0.00738000
N        4.39169835       0.68356973      -0.00987000
C        4.42667802      -0.68983972      -0.01225000
C        3.12620865      -1.14710950       0.00415000
H        0.45255983       0.87937967      -0.01674999
H        0.39151986      -0.83558966      -0.03623998
H        3.55529871       2.94649883       0.00642000
H        5.20772805       1.27792950      -0.01865999
H        5.36907774      -1.22003954      -0.02378999
H        2.82031882      -2.18406909       0.00873000
