21
Properties=species:S:1:pos:R:3 atomization_energy=-2044.71 smiles=C.C.C.C.C.C.C.H.H.H.H.H.H.H.H.H.H.H.H.H.H pbc="F F F"
C        2.99547885      -0.85049966      -1.06956962
C        2.52471906      -0.00382000       0.10477996
C        3.10403883       1.42317945       0.10481996
C        2.49520892       2.21968918       1.26383946
C        4.61009812       1.41146939       0.22483991
C        5.47064763       1.54130934      -1.00747960
C        5.40762790       2.66837907      -0.01973999
H        2.48331907      -1.81885934      -1.06239963
H        4.07095832      -1.04743960      -1.01567961
H        2.77863900      -0.35910986      -2.02339918
H        2.78559880      -0.51834978       1.03741959
H        1.42995947       0.05257998       0.06867997
H        2.81129899       1.91837929      -0.83047970
H        2.76781903       1.78380926       2.23132922
H        1.40269949       2.24098922       1.19310949
H        2.85018879       3.25572877       1.25684950
H        4.95802810       0.76048970       1.02075961
H        4.99062778       1.68705928      -1.96952923
H        6.38069747       0.95453962      -1.05389959
H        6.27523763       2.84467888       0.60649975
H        4.88501807       3.57162858      -0.31249987
