20
Properties=species:S:1:pos:R:3 atomization_energy=-1853.5 smiles=C.O.C.C.C.C.N.H.H.H.H.H.H.H.H.H.H.H.H.H pbc="F F F"
C        1.85879921       1.03768959      -1.89552931
O        3.15692872       1.34084944      -1.40402940
C        3.28176860       1.02372961      -0.01748999
C        4.68130802       1.39663950       0.45955982
C        5.02153786       2.88536881       0.30739987
C        4.10221838       3.83978858       1.07062954
N        4.09585837       3.55690858       2.50212911
H        1.84559926       1.22739954      -2.97198883
H        1.11380960       1.68082934      -1.41821950
H        1.61457940      -0.01499000      -1.72354928
H        3.13177886      -0.05366998       0.11784996
H        2.51377899       1.55123933       0.55850975
H        5.41478805       0.83027966      -0.12860995
H        4.80383806       1.08638952       1.50318940
H        5.00250805       3.15716868      -0.75483968
H        6.05598751       3.03768883       0.64172974
H        3.07993867       3.78262848       0.68549975
H        4.44536820       4.86841821       0.91303965
H        5.04348815       3.64740845       2.86975884
H        3.53893856       4.26385825       2.98144873
