13
Properties=species:S:1:pos:R:3 atomization_energy=-1327.67 smiles=N.N.C.C.C.O.C.H.H.H.H.H.H pbc="F F F"
N        0.96102964      -0.01096000      -0.22956991
N        2.36117914      -0.01700999      -0.13314995
C        3.14549887       1.09718955      -0.05417998
C        4.45769811       0.68158975       0.05405998
C        4.43354850      -0.72491969       0.02764999
O        5.49305767      -1.54018937       0.10113996
C        3.13164866      -1.14252956      -0.09271997
H        0.56660977       0.85586965       0.13159994
H        0.54779980      -0.74930972       0.33435986
H        2.72062905       2.09036916      -0.08634997
H        5.32803808       1.31883947       0.13358996
H        5.20811815      -2.46721908       0.03826999
H        2.68966902      -2.12613914      -0.15730994
