14
Properties=species:S:1:pos:R:3 atomization_energy=-1450.85 smiles=N.C.C.C.C.C.O.H.H.H.H.H.H.H pbc="F F F"
N        1.10751961       0.08937996      -0.59584979
C        2.25806902      -0.03047999      -0.50431982
C        3.71411853      -0.17035994      -0.38976985
C        4.28759808       0.88004967       0.55900981
C        5.77714785       0.77384969       0.65206976
C        6.49116758       0.91854962       1.97069917
O        6.24145755      -0.36666987       1.38240941
H        4.17363847      -0.06998997      -1.38015949
H        3.96054851      -1.17603953      -0.02957999
H        3.83054846       0.77292969       1.55132941
H        4.03088837       1.88685921       0.20646993
H        6.29703754       1.04353957      -0.25792990
H        5.92374777       1.18268960       2.85434897
H        7.51306729       1.27716948       1.96698927
