20
Properties=species:S:1:pos:R:3 atomization_energy=-1862.87 smiles=N.C.C.C.C.C.O.H.H.H.H.H.H.H.H.H.H.H.H.H pbc="F F F"
N        1.27555948      -0.21119992       0.89083967
C        2.56101893       0.45222981       1.06876961
C        2.91833892       1.25979950      -0.17789993
C        4.27116829       1.95703922      -0.01755999
C        4.63202823       2.76351880      -1.26332949
C        5.97741761       3.45938861      -1.11310951
O        6.24962752       4.19343840      -2.29845917
H        0.54751978       0.48406983       0.73245973
H        1.02366962      -0.69894970       1.74971931
H        3.32944861      -0.30411988       1.26046945
H        2.51281912       1.10880953       1.94429926
H        2.14162925       2.01115922      -0.37026985
H        2.95011878       0.59773975      -1.05280959
H        5.04964806       1.20857954       0.17359993
H        4.24037832       2.62186887       0.85413966
H        3.85663850       3.51227850      -1.46876940
H        4.65799816       2.10999914      -2.14441927
H        6.77951711       2.72994890      -0.96269964
H        5.96512757       4.15514839      -0.26823989
H        7.11709697       4.61637814      -2.17991925
