19
Properties=species:S:1:pos:R:3 atomization_energy=-1724.96 smiles=C.O.C.C.N.C.N.H.H.H.H.H.H.H.H.H.H.H.H pbc="F F F"
C        3.38790872       1.56868943       3.14675876
O        4.13783847       2.37248913       2.24680924
C        3.57287863       2.42000916       0.91743961
C        2.33634898       3.34801868       0.87122968
N        2.62093902       4.70588811       1.34499953
C        4.67320818       2.91302886      -0.04661998
N        5.78700794       1.95158924      -0.11431995
H        3.95169850       1.48642944       4.08061832
H        3.23975872       0.56228980       2.74305903
H        2.42417893       2.03269923       3.37305877
H        3.27049873       1.40822945       0.61584976
H        1.54413936       2.93004885       1.50109947
H        1.94405929       3.40005872      -0.15004993
H        3.14302880       4.63219830       2.22144919
H        1.74733933       5.18191809       1.56425937
H        5.08003783       3.86965854       0.30035989
H        4.26905829       3.05239873      -1.05461956
H        6.08582770       1.77493932       0.84814963
H        6.57680730       2.40019914      -0.57528978
