18
Properties=species:S:1:pos:R:3 atomization_energy=-1705.49 smiles=C.N.C.C.C.O.C.H.H.H.H.H.H.H.H.H.H.H pbc="F F F"
C        1.46625946      -0.07487997      -0.77822972
N        2.87789880       0.24955990      -0.94853963
C        3.48777865       0.61940977       0.33064986
C        4.97089800       0.88379963       0.13781994
C        5.78036759       1.08454952       1.42434939
O        6.76336741       0.10872996       1.00098958
C        5.87960746      -0.33634987      -0.06022998
H        1.03450958      -0.34340987      -1.74777926
H        0.90329966       0.77756968      -0.38350985
H        1.33419950      -0.93253962      -0.11045996
H        2.95751890       1.02777959      -1.60318942
H        3.33988856      -0.18420992       1.06281963
H        3.00523878       1.52141945       0.72532973
H        5.16628819       1.67965929      -0.59365975
H        5.29934801       0.77600971       2.35807900
H        6.21990745       2.07848915       1.54698944
H        6.39340739      -0.38205984      -1.02440958
H        5.44605795      -1.31327947       0.17598993
