13
Properties=species:S:1:pos:R:3 atomization_energy=-1336.97 smiles=N.C.O.N.C.C.C.H.H.H.H.H.H pbc="F F F"
N        1.06309960      -0.23911990      -0.40872983
C        2.28875906      -0.18184994       0.16871994
O        2.53639897      -0.75303968       1.21914957
N        3.16323877       0.57004981      -0.55345978
C        4.47438831       0.83491965      -0.01624999
C        5.27648781       1.56045939      -1.00540960
C        5.93118750       2.15666920      -1.81726927
H        1.04109959      -0.27061988      -1.41759940
H        0.43399983      -0.88521962       0.05186998
H        2.73817894       1.30758953      -1.09438955
H        4.94647789      -0.11587995       0.25388991
H        4.35667830       1.42506941       0.89910964
H        6.51410752       2.68289897      -2.53745901
