23
Properties=species:S:1:pos:R:3 atomization_energy=-2190.06 smiles=C.C.C.C.C.C.C.H.H.H.H.H.H.H.H.H.H.H.H.H.H.H.H pbc="F F F"
C        2.63510894      -0.82925968      -1.19783956
C        2.25704910       0.09967996      -0.05012998
C        2.92056877       1.50369937      -0.07124997
C        2.46827912       2.28349921      -1.32388950
C        2.42632905       2.28189918       1.16638950
C        4.47230809       1.44222945      -0.07905997
C        5.11297816       0.71848972       1.09915962
H        2.10320916      -1.78101924      -1.09292956
H        3.70559856      -1.05151961      -1.20295949
H        2.36022911      -0.40673985      -2.16795925
H        2.49019914      -0.40814984       0.89374968
H        1.16521957       0.21903992      -0.05976998
H        2.85733885       1.83445934      -2.24384914
H        2.82647899       3.31934880      -1.29295949
H        1.37599944       2.31350897      -1.40003941
H        2.64721908       1.74812937       2.09670923
H        1.34095946       2.43196916       1.12918956
H        2.89517895       3.27063877       1.22658955
H        4.87204825       2.46523903      -0.10264996
H        4.82034809       0.96826960      -1.00514958
H        4.88710788       1.21375952       2.04698925
H        6.20187737       0.71638970       0.98294960
H        4.78775800      -0.32344987       1.16173954
