16
Properties=species:S:1:pos:R:3 atomization_energy=-1584.43 smiles=C.N.C.C.O.C.C.H.H.H.H.H.H.H.H.H pbc="F F F"
C        2.29938902      -0.42708983      -1.61142942
N        2.34073905       0.11699996      -0.26018989
C        3.27927859       1.23161953      -0.14116994
C        3.51999858       1.65370929       1.32617953
O        3.57383849       3.09694882       1.38586950
C        2.98110884       3.47763872       0.20248992
C        2.76703883       2.51298894      -0.68545975
H        1.59897940      -1.26791952      -1.64071940
H        3.28040878      -0.79917971      -1.92480919
H        1.94741921       0.31215988      -2.33746908
H        2.61485886      -0.62372975       0.38357985
H        4.24193824       0.98310964      -0.60553975
H        4.45867817       1.24168956       1.71307930
H        2.71002887       1.32609942       1.99140925
H        2.78334901       4.53244822       0.11019996
H        2.34185914       2.65521898      -1.66603933
