16
Properties=species:S:1:pos:R:3 atomization_energy=-1640.68 smiles=C.C.C.C.C.C.N.H.H.H.H.H.H.H.H.H pbc="F F F"
C        1.09351952       0.07141997      -0.39963985
C        2.36960902      -0.17302993       0.32874987
C        3.50652863      -0.99282963      -0.22144992
C        3.69101861      -1.21512955      -1.65012934
C        3.86406839      -0.07249997      -2.32095905
C        3.78218841       1.06983961      -1.35407942
N        3.63465865       0.48325981       0.00612000
H        0.68836970       1.05083958      -0.12532995
H        0.35635986      -0.68508971      -0.11045996
H        1.18180959       0.03600999      -1.48841944
H        2.17809918      -0.26293989       1.39422948
H        4.08677849      -1.60845935       0.45574983
H        3.69598853      -2.20053926      -2.09543912
H        4.02312843       0.02829999      -3.38256863
H        4.71289838       1.64597937      -1.38771946
H        2.95563878       1.74640936      -1.59473935
