12
Properties=species:S:1:pos:R:3 atomization_energy=-1278.79 smiles=N.C.C.C.C.O.O.H.H.H.H.H pbc="F F F"
N        1.10370953      -0.10704996      -0.10751996
C        2.42714913       0.06687997      -0.05528998
C        3.22107864       1.18953951      -0.01935999
C        4.56000834       0.72527970       0.02680999
C        4.47473804      -0.64284977       0.01758999
O        5.35436783      -1.62344934       0.04288998
O        3.18678884      -1.05791961      -0.02884999
H        0.47045980       0.65591977       0.10205996
H        0.72792969      -1.03177961       0.07290998
H        2.88083896       2.21439905      -0.03079999
H        5.46881772       1.30738943       0.05878998
H        4.79614801      -2.41974901       0.00828000
