20
Properties=species:S:1:pos:R:3 atomization_energy=-1916.81 smiles=C.C.C.C.C.C.N.H.H.H.H.H.H.H.H.H.H.H.H.H pbc="F F F"
C        0.95474963      -0.07674996      -0.05666998
C        2.44166902      -0.17581993      -0.08416996
C        3.14915868      -0.66214977      -1.32239949
C        3.24535871       0.78921969      -0.92035965
C        4.54399843       1.34250953      -0.40744985
C        4.30924810       2.47216906       0.59894974
N        5.57529798       3.03047871       1.06570958
H        0.64246976       0.68855970       0.66099977
H        0.51898979      -1.03238962       0.25199990
H        0.54084978       0.18566993      -1.03597960
H        2.83997896      -0.48402980       0.87650965
H        2.55794907      -0.90587962      -2.19837905
H        4.01717846      -1.29873952      -1.19126949
H        2.71458900       1.51076944      -1.53251938
H        5.12375776       1.71696937      -1.26060949
H        5.14183779       0.54872977       0.05995998
H        3.74059842       2.09805920       1.45725944
H        3.71435849       3.26802866       0.13804994
H        6.12348764       2.30085910       1.51861946
H        5.38814792       3.73191848       1.78113935
