19
Properties=species:S:1:pos:R:3 atomization_energy=-1917.0 smiles=C.C.C.C.C.C.C.H.H.H.H.H.H.H.H.H.H.H.H pbc="F F F"
C       -0.92067967       0.00119000      -1.15375956
C       -0.60426977       1.05039957      -0.04132998
C       -1.20365959      -0.00145000       0.93593965
C       -0.60443978      -1.05106958      -0.04389998
C        0.88846965      -1.27667945       0.21849991
C        1.68135937      -0.00049000      -0.08567997
C        0.88932965       1.27488955       0.22161991
H       -1.96571929       0.00175000      -1.48859936
H       -0.27913988       0.00216000      -2.03897925
H       -1.16800959       1.98636919      -0.10049996
H       -0.81748968      -0.00280000       1.95917924
H       -2.29999915      -0.00131000       0.98150960
H       -1.16858958      -1.98664928      -0.10549996
H        1.04067958      -1.57715943       1.26230944
H        1.26462950      -2.09438917      -0.40725984
H        1.92713922       0.00062000      -1.15573948
H        2.64120905      -0.00143000       0.44168981
H        1.26526954       2.09394923      -0.40202983
H        1.04120961       1.57275940       1.26611952
