18
Properties=species:S:1:pos:R:3 atomization_energy=-1761.22 smiles=C.C.C.N.C.C.C.H.H.H.H.H.H.H.H.H.H.H pbc="F F F"
C        1.01153961       0.25844989      -0.25968990
C        2.47517912       0.04406998      -0.08343997
C        3.19816873      -0.97278961      -0.92871964
N        3.38018864       0.46194980      -1.14993952
C        4.68556838       0.89829965      -0.62846973
C        5.89516771       0.80025969      -1.52156934
C        5.29909770       2.14175920      -1.21723955
H        0.73241974       1.25664953       0.09125997
H        0.45256983      -0.47625982       0.32778988
H        0.69943972       0.16550994      -1.30512943
H        2.78070887       0.16825994       0.94845964
H        2.65020895      -1.49400946      -1.70407928
H        4.01002840      -1.53563945      -0.48442980
H        4.86892792       0.74812969       0.43461984
H        5.76336753       0.40262985      -2.52154903
H        6.84205741       0.54643980      -1.06198959
H        5.84025791       2.80227890      -0.55078980
H        4.76395811       2.65054884      -2.01047919
