12
Properties=species:S:1:pos:R:3 atomization_energy=-1284.51 smiles=O.C.N.C.C.C.O.H.H.H.H.H pbc="F F F"
O        1.47153937       0.08662996       1.10582962
C        2.34097901       0.03461999       0.25325990
N        2.92872891      -1.11123961      -0.23231991
C        3.93318849      -0.83184966      -1.19768955
C        5.13820776       0.00199000      -0.87320966
C        3.88887836       0.67335971      -1.35965947
O        2.91170891       1.12195952      -0.37355987
H        2.68217906      -2.01849916       0.13273994
H        3.92146846      -1.44074940      -2.09266916
H        5.41836762       0.13127995       0.16597994
H        5.98238753      -0.04355998      -1.55133938
H        3.85632839       1.08844955      -2.35818901
