12
Properties=species:S:1:pos:R:3 atomization_energy=-1314.01 smiles=O.C.N.C.C.C.C.H.H.H.H.H pbc="F F F"
O        0.91879961       0.07937997      -0.02237999
C        2.14279905       0.05520998      -0.02276999
N        2.91261882       1.18633957      -0.01151000
C        4.28207809       1.20511957      -0.01141999
C        4.97935817       2.34739908       0.00000000
C        6.38535752       2.34739908       0.00000000
C        7.57551726       2.34739908       0.00000000
H        2.72024904      -0.88377963      -0.03224999
H        2.38963908       2.05530924      -0.00273000
H        4.78513830       0.23985991      -0.02112999
H        4.47656846       3.30941881       0.00968000
H        8.64093653       2.34853911       0.00001000
