11
Properties=species:S:1:pos:R:3 atomization_energy=-1109.98 smiles=C.C.O.C.C.H.H.H.H.H.H pbc="F F F"
C        1.21679948      -0.46872982      -0.41934982
C        2.50308897      -0.35422987      -0.08298997
O        3.16459883       0.84397967      -0.15760993
C        4.48179827       0.90688964       0.21682992
C        5.17812808       2.04325916       0.14831994
H        0.70608972      -1.42277938      -0.35654987
H        0.65359972       0.39248985      -0.76339970
H        3.08876875      -1.19437947       0.26224989
H        4.91521808      -0.01796999       0.57032977
H        4.71634825       2.95716891      -0.21033991
H        6.21910755       2.07902914       0.44868983
