13
Properties=species:S:1:pos:R:3 atomization_energy=-1309.06 smiles=C.N.C.N.C.C.S.H.H.H.H.H.H pbc="F F F"
C        0.90453961      -0.00907000      -0.00080000
N        2.35445905      -0.11792995       0.00553000
C        3.00404878       0.98294960       0.00659000
N        2.61622901       2.30010917       0.00310000
C        3.62765848       3.22561884       0.00674000
C        4.86029819       2.70021898       0.01313999
S        4.79486819       0.94775961       0.01476000
H        0.46996980      -1.01351960      -0.00957000
H        0.54484980       0.51273979      -0.89401968
H        0.53715981       0.50087982       0.89609964
H        1.64846938       2.58017895      -0.00111000
H        3.37900874       4.27846823       0.00445000
H        5.79013786       3.25066877       0.01703000
