11
Properties=species:S:1:pos:R:3 atomization_energy=-1169.72 smiles=O.N.C.C.C.C.N.H.H.H.H pbc="F F F"
O        1.03832962      -0.22923991       0.15116994
N        2.43822899      -0.17447993       0.09864996
C        2.87385897       1.03341957      -0.09139996
C        2.05932913       2.27398910      -0.24643990
C        2.58833909       3.48900851      -0.44052981
C        4.32637837       1.03557959      -0.13792994
N        5.48928784       1.07707963      -0.18097993
H        0.86938968      -1.18066956       0.29531989
H        0.98287964       2.15111917      -0.19423992
H        3.65706845       3.67282855      -0.50137981
H        1.93965927       4.35454812      -0.54614981
