20
Properties=species:S:1:pos:R:3 atomization_energy=-1928.1 smiles=C.C.C.C.C.N.C.H.H.H.H.H.H.H.H.H.H.H.H.H pbc="F F F"
C        1.04509961      -0.02822999      -0.02940999
C        2.56665904       0.00685000       0.02272999
C        3.07569875       1.13502952       0.91080967
C        4.48666826       0.68724973       1.22695948
C        4.37253833      -0.82586967       1.33459945
N        3.12506887      -1.20135959       0.65189976
C        3.33315863      -2.28343916      -0.30416988
H        0.68782971      -0.83842965      -0.67307975
H        0.65283975       0.91370965      -0.42732983
H        0.61150979      -0.17529994       0.96668963
H        2.97060883       0.14643994      -0.98930961
H        2.49069901       1.21700955       1.83549933
H        3.05681882       2.10576919       0.40544984
H        5.15306805       0.95171963       0.39678983
H        4.87522812       1.14735956       2.13987907
H        5.26853786      -1.30691946       0.92560965
H        4.29063817      -1.12206954       2.38668907
H        2.39071905      -2.57092899      -0.78188972
H        3.71336860      -3.17506881       0.20616992
H        4.04622835      -2.00789923      -1.09020956
