16
Properties=species:S:1:pos:R:3 atomization_energy=-1606.04 smiles=C.C.C.C.C.C.H.H.H.H.H.H.H.H.H.H pbc="F F F"
C        0.99660961       0.20419992      -0.32453988
C        2.45964914       0.05599998       0.00288000
C        3.00123882      -1.16603952       0.14517994
C        3.24069866       1.30448952       0.08159997
C        2.84905885       2.36604913       1.07788961
C        4.10167839       1.56985936       1.29133953
H        0.86816966       0.81413967      -1.22494953
H        0.46485981       0.68828971       0.50144980
H        0.51410980      -0.76193972      -0.50895981
H        2.40693916      -2.06960924       0.05953997
H        4.06035839      -1.28801947       0.35139985
H        3.62180869       1.64641931      -0.87756963
H        2.02120920       2.18371911       1.75287926
H        2.95080891       3.40216871       0.77632973
H        5.05280826       2.06497921       1.13382956
H        4.10759834       0.85346966       2.10461919
