14
Properties=species:S:1:pos:R:3 atomization_energy=-1409.01 smiles=O.C.C.C.N.C.O.H.H.H.H.H.H.H pbc="F F F"
O        2.56438907      -0.40613984      -1.54555935
C        2.11940921       0.03262999      -0.26802989
C        2.69860886       1.39754941       0.02776999
C        1.90499930       2.46409900       0.21299991
N        4.06320847       1.57192936       0.13003995
C        5.04838792       0.63865975      -0.03848999
O        6.23848760       0.90709965       0.08598997
H        2.09076923      -1.23253953      -1.74018927
H        2.43321896      -0.69225970       0.49019980
H        1.02335957       0.05542998      -0.28027988
H        0.82442968       2.38445897       0.14236995
H        2.30286917       3.45049872       0.42823983
H        4.42320847       2.49804891       0.32705988
H        4.70371806      -0.37717984      -0.27531990
