13
Properties=species:S:1:pos:R:3 atomization_energy=-1319.77 smiles=N.C.C.S.C.C.N.H.H.H.H.H.H pbc="F F F"
N        0.99052963       0.00099000      -0.07232998
C        2.34339912       0.02820999      -0.04270998
C        3.08294873       1.18619952      -0.08306997
S        4.76671811       0.87244964       0.00958999
C        4.50280838      -0.82019966       0.09296996
C        3.16510879      -1.13288950       0.04259998
N        2.68973891      -2.39965915       0.06304997
H        0.46399980       0.85217968       0.09951996
H        0.52037979      -0.82034967       0.29579989
H        2.72944904       2.20426922      -0.15329994
H        5.34509769      -1.49209945       0.16543993
H        1.76193934      -2.56859896      -0.31316987
H        3.31904878      -3.17796885      -0.10799996
