13
Properties=species:S:1:pos:R:3 atomization_energy=-1324.54 smiles=O.C.C.C.C.N.N.H.H.H.H.H.H pbc="F F F"
O        1.89437931      -0.78408967      -0.59885979
C        2.02886922       0.19235992       0.13527995
C        3.11328879       1.23072956      -0.03648999
C        3.49482853       1.47172937      -1.48363941
C        3.48291875       2.96314891      -1.50343946
N        3.01430882       3.53809855      -0.44532981
N        2.59390905       2.54218897       0.36928985
H        1.41120949       0.28908990       1.04533957
H        3.97891848       0.95794963       0.57602980
H        2.78008889       1.09926952      -2.22262909
H        4.49902846       1.11037953      -1.71965934
H        3.85815854       3.51492874      -2.37704901
H        2.75574902       2.75671898       1.35515953
