13
Properties=species:S:1:pos:R:3 atomization_energy=-1373.51 smiles=C.C.C.C.N.C.N.H.H.H.H.H.H pbc="F F F"
C        0.99999962       0.00000000       0.00000000
C        2.19015911       0.00000000       0.00000000
C        3.63415853       0.00000000       0.00000000
C        4.23628854      -1.19088948      -0.78223970
N        4.66127796      -0.66304971      -2.12108923
C        4.55652820       0.62144975      -1.97310919
N        4.13516830       1.11554955      -0.77794969
H       -0.06601997      -0.00411000      -0.00645000
H        4.02623841       0.02990999       1.02155962
H        3.53110872      -2.01901922      -0.91304962
H        5.12934790      -1.57347943      -0.27357988
H        4.76457834       1.36068949      -2.76223898
H        3.56516864       1.95194919      -0.79780968
