13
Properties=species:S:1:pos:R:3 atomization_energy=-1219.74 smiles=O.C.C.C.S.O.O.H.H.H.H.H.H pbc="F F F"
O        0.91570962       0.13256995      -0.12559995
C        2.36155915       0.05295998      -0.06885997
C        3.04741872       1.04024961       0.90793966
C        4.14821837       0.02506999       1.27874946
S        3.06657874      -1.31066949       0.87756963
O        2.21189921      -1.68851939       1.98477925
O        3.69598853      -2.28080911       0.00719000
H        0.61391974      -0.79370967      -0.18068994
H        2.78405882       0.06510998      -1.07990952
H        2.41437915       1.32734946       1.75696929
H        3.41810873       1.95958927       0.44439982
H        5.02843811       0.05308998       0.62838974
H        4.46720848       0.04419999       2.32370921
