15
Properties=species:S:1:pos:R:3 atomization_energy=-1458.51 smiles=O.C.C.C.C.N.N.H.H.H.H.H.H.H.H pbc="F F F"
O        3.06695875      -1.00219964      -0.58129974
C        2.38845918       0.05142998       0.09767996
C        3.20413864       1.33764950       0.00583000
C        3.35223866       1.85417928      -1.41765945
C        3.19402873       3.31532866      -1.16228950
N        2.76802897       3.63789859       0.01506000
N        2.54670898       2.46933891       0.66469976
H        2.51222892      -1.79691926      -0.49203980
H        2.25678919      -0.24525991       1.14379954
H        1.39820951       0.17195993      -0.35586987
H        4.20372847       1.18346955       0.43196982
H        2.56546905       1.52880936      -2.10439916
H        4.33686828       1.65001932      -1.84510923
H        3.41806861       4.04999843      -1.94829922
H        2.76674889       2.53290898       1.66012935
