11
Properties=species:S:1:pos:R:3 atomization_energy=-1096.2 smiles=O.S.O.C.C.C.O.H.H.H.H pbc="F F F"
O        0.96830959      -0.03296999       0.25545990
S        2.40974912       0.05982997       0.13652995
O        3.27051866       0.24730990       1.28761953
C        3.02244878      -1.32463943      -0.85575969
C        3.46655860      -0.67668972      -2.13273911
C        3.31249876       0.64533978      -2.13714910
O        2.77758879       1.19343954      -0.99635962
H        2.20598911      -2.03082920      -1.01855959
H        3.85694836      -1.79343924      -0.33048985
H        3.87082860      -1.23978951      -2.96296875
H        3.54869848       1.35188944      -2.91550877
