14
Properties=species:S:1:pos:R:3 atomization_energy=-1395.1 smiles=O.C.O.C.C.N.C.H.H.H.H.H.H.H pbc="F F F"
O        2.03536915       0.16441993       1.22121957
C        2.32662919       1.08560956       1.96493920
O        3.44295857       1.85245926       1.89503928
C        4.33910848       1.49929947       0.81916971
C        5.71903798       2.18943920       0.83705968
N        6.34746746       0.90818965       0.44565983
C        5.15809802       0.19715993       0.96758962
H        1.70884935       1.42505945       2.81092882
H        3.84853841       1.59666943      -0.15985994
H        6.03726756       2.54804911       1.82292931
H        5.84959770       2.99886892       0.11270995
H        6.46281766       0.80579968      -0.56388977
H        4.82523827      -0.64237974       0.35025985
H        5.27798817      -0.15243993       1.99973921
