13
Properties=species:S:1:pos:R:3 atomization_energy=-1316.0 smiles=N.C.C.N.C.C.S.H.H.H.H.H.H pbc="F F F"
N        0.87165966       0.07973997       0.11773996
C        2.22634921       0.02520999       0.08135997
C        3.10522882       1.08547961      -0.02853999
N        2.71505884       2.38119910      -0.07112997
C        4.46186814       0.67447975      -0.08483996
C        4.58312794      -0.69505976       0.00715000
S        3.06195880      -1.46627940       0.15594994
H        0.43561982       0.87488968      -0.33983986
H        0.37786984      -0.78936970      -0.05845998
H        3.39534870       3.11687870       0.09280996
H        1.80057933       2.61529892       0.30562990
H        5.31075793       1.33796945      -0.18050993
H        5.49041778      -1.28245948      -0.00275000
