13
Properties=species:S:1:pos:R:3 atomization_energy=-1328.97 smiles=O.C.N.N.C.C.C.H.H.H.H.H.H pbc="F F F"
O        1.36196944       0.16521993       0.63703978
C        2.43603901      -0.08622996       0.12137995
N        2.90715888      -1.30872944      -0.30939988
N        4.15009849      -1.27934950      -1.00254962
C        4.58061826       0.13368994      -0.84914969
C        3.88083858       1.24356956      -1.57949942
C        3.47768868       0.91615966      -0.16533993
H        2.26812921      -2.09466914      -0.37511984
H        4.79685807      -1.89560930      -0.50111981
H        5.60683787       0.29893987      -0.53992978
H        4.42696820       2.16417908      -1.74683933
H        3.20004885       0.98422961      -2.38240903
H        3.74466852       1.59521941       0.63091974
