14
Properties=species:S:1:pos:R:3 atomization_energy=-1432.27 smiles=C.C.C.C.C.O.H.H.H.H.H.H.H.H pbc="F F F"
C        0.96108964      -0.07533997       0.06962997
C        2.46005892      -0.08567997      -0.00276000
C        3.18130871      -1.19426958       0.22986991
C        3.09853876       1.22914946      -0.35332987
C        4.59988829       1.32380951      -0.45091983
O        2.39141902       2.21688906      -0.55771976
H        0.61830974       0.63227974       0.83170969
H        0.55752976      -1.06011956       0.32856987
H        0.53199977       0.21349992      -0.89547966
H        2.69218905      -2.13148906       0.48144981
H        4.26409847      -1.22283954       0.18265993
H        4.96998810       0.65940977      -1.23595950
H        5.05695810       1.08255963       0.51219981
H        4.88009811       2.34877908      -0.71291970
