12
Properties=species:S:1:pos:R:3 atomization_energy=-1287.53 smiles=O.C.C.C.C.C.N.H.H.H.H.H pbc="F F F"
O        1.00070962       0.00494000      -0.01020000
C        2.41999907       0.00000000       0.00000000
C        2.90201889       1.36116943       0.00000000
C        3.29929881       2.48306901       0.00000000
C        3.78131863       3.84423844       0.00000000
C        3.19839885       5.16535810       0.00000000
N        2.73374901       6.21840759       0.00000000
H        0.71764971      -0.92406962      -0.00960000
H        2.77025883      -0.54132978      -0.88377963
H        2.75764882      -0.53699978       0.89184963
H        4.47160812       3.87104838      -0.85950965
H        4.47161822       3.87104838       0.85950965
