14
Properties=species:S:1:pos:R:3 atomization_energy=-1399.12 smiles=O.C.N.C.C.O.C.H.H.H.H.H.H.H pbc="F F F"
O        2.04727918       2.79628881       0.31409987
C        1.93880929       1.59968933       0.53992978
N        2.95024873       0.67940973       0.43157984
C        4.32306828       1.08265955       0.05012998
C        5.17677810       1.63901932       1.19642954
O        6.04601740       0.48020982       1.17676952
C        5.35401810      -0.05087998       0.02446999
H        0.99260959       1.13805951       0.86706969
H        2.74757904      -0.27280989       0.71272969
H        4.33186808       1.69727933      -0.85663964
H        4.67936809       1.74487935       2.16533904
H        5.72737752       2.55598896       0.96450961
H        6.00191746      -0.06963997      -0.85716966
H        4.97279806      -1.05782959       0.21800992
