20
Properties=species:S:1:pos:R:3 atomization_energy=-1912.4 smiles=C.C.N.C.C.C.C.H.H.H.H.H.H.H.H.H.H.H.H.H pbc="F F F"
C        0.97028963       0.05743998       0.01056000
C        2.48258908      -0.06727998       0.02860999
N        3.13329865       0.94516962       0.89837964
C        4.15802825      -0.05325998       1.27385953
C        3.16933888      -1.18340949       0.88110965
C        2.38759898      -1.74857928       2.06771915
C        3.79033846      -2.30086919       0.04729998
H        0.52437980      -0.79751968      -0.50973980
H        0.66293975       0.96501963      -0.52147979
H        0.53923978       0.09933996       1.01667960
H        2.86451893      -0.01909999      -1.00162962
H        2.55693899       1.23868947       1.68724928
H        5.06218792       0.01023000       0.65467976
H        4.46441820      -0.01864999       2.32421917
H        1.96636916      -0.95799965       2.69831893
H        3.03628889      -2.36154905       2.70346901
H        1.56049938      -2.37933916       1.72439926
H        4.37903839      -1.90522930      -0.78756969
H        3.01371887      -2.94911879      -0.37203985
H        4.45698805      -2.91953875       0.65718976
