15
Properties=species:S:1:pos:R:3 atomization_energy=-1546.82 smiles=C.C.C.C.N.N.C.H.H.H.H.H.H.H.H pbc="F F F"
C        1.03637961       0.04448998       0.01871999
C        2.52089902      -0.03691999       0.01694999
C        3.24967862      -1.16307955      -0.03981999
C        4.63339839      -0.67818971      -0.03056999
N        5.64632771      -1.44691941      -0.19406992
N        4.68946791       0.67368976       0.13396995
C        3.34758870       1.22160955       0.07249997
H        0.57780975      -0.94834962      -0.03984999
H        0.68551974       0.62823973      -0.83792965
H        0.68221976       0.52551980       0.93573962
H        2.95153890      -2.19285905      -0.10336996
H        6.49661743      -0.88317965      -0.12955995
H        5.42065778       1.17276957      -0.35338986
H        3.21022865       1.82859932      -0.82727970
H        3.13174884       1.81213925       0.96716962
