15
Properties=species:S:1:pos:R:3 atomization_energy=-1566.63 smiles=C.C.C.N.C.C.N.H.H.H.H.H.H.H.H pbc="F F F"
C        0.95577964      -0.01064999      -0.00762000
C        2.43130906       0.05025998      -0.00040000
C        3.31413866       1.10501951       0.00430000
N        4.60990836       0.65908975       0.01038000
C        4.53600811      -0.65512973       0.00953000
C        5.67505765      -1.60234941       0.01458000
N        3.22692869      -1.06775952       0.00277000
H        0.52073980       0.99408958       0.00129000
H        0.58668979      -0.54672979       0.87308968
H        0.59493976      -0.52761980      -0.90299964
H        3.08785884       2.16393911       0.00360000
H        5.33678791      -2.64308892       0.02310999
H        6.29721770      -1.43814938       0.89934967
H        6.29398736      -1.45139942      -0.87477967
H        2.91210886      -2.02727915       0.00071000
