12
Properties=species:S:1:pos:R:3 atomization_energy=-1221.98 smiles=C.C.C.O.C.O.H.H.H.H.H.H pbc="F F F"
C        1.10688954      -0.04088998       0.08611996
C        2.43242916      -0.00197000      -0.07699997
C        3.30389881       1.19468959       0.02305999
O        4.48529811       0.79970967      -0.66670971
C        4.47176811      -0.62680976      -0.61209974
O        3.14288875      -1.12487950      -0.44548983
H        0.56332978      -0.97158965      -0.04188998
H        0.53971978       0.84702966       0.34318987
H        3.56032868       1.41967949       1.06271958
H        2.88280891       2.08009915      -0.46014983
H        4.89623823      -1.02512961      -1.53882943
H        5.08888810      -0.96016964       0.23051992
