15
Properties=species:S:1:pos:R:3 atomization_energy=-1437.67 smiles=O.S.O.C.C.C.C.H.H.H.H.H.H.H.H pbc="F F F"
O        0.96959963      -0.09595996       0.60027978
S        2.27121901       0.01458999      -0.02630999
O        2.43026895       0.20603992      -1.45309938
C        3.21326874       1.26737953       0.82926964
C        4.53692811       0.59790976       1.17882956
C        4.19000846      -0.83586968       1.57505940
C        3.27718878      -1.37364947       0.47822981
H        2.66187901       1.54124941       1.73355926
H        3.33949871       2.14124923       0.18740992
H        5.19503780       0.58897976       0.30143987
H        5.05448778       1.12974961       1.98261917
H        5.08453791      -1.45539938       1.68883935
H        3.65893847      -0.83358968       2.53454888
H        3.85656861      -1.70069930      -0.38991986
H        2.63760904      -2.18605923       0.82964965
