15
Properties=species:S:1:pos:R:3 atomization_energy=-1365.48 smiles=C.C.S.O.O.O.C.H.H.H.H.H.H.H.H pbc="F F F"
C        1.03744962      -0.09616996       0.05603998
C        2.54504889       0.05440998       0.03944999
S        3.02942876       1.77114930      -0.01433999
O        2.64972902       2.32987896      -1.29558954
O        2.66992889       2.40419910       1.23633951
O        4.63981820       1.52579942      -0.02040999
C        5.46481777       2.67479888      -0.06144998
H        0.76065970      -1.15423950       0.08942997
H        0.58739979       0.34717986      -0.83800964
H        0.60160976       0.39925983       0.92953965
H        2.96864872      -0.43547985      -0.84231965
H        2.98301873      -0.38316984       0.94155964
H        6.50944747       2.35270914      -0.05975998
H        5.29150808       3.30257861       0.81739967
H        5.27773786       3.24843867      -0.97385962
