11
Properties=species:S:1:pos:R:3 atomization_energy=-1189.55 smiles=O.C.C.C.C.N.N.H.H.H.H pbc="F F F"
O        0.92338964      -0.11276995       0.00684000
C        2.29022914      -0.00609000      -0.00144000
C        2.94639891       1.15541952      -0.00234000
C        2.38446906       2.46910904       0.00485000
C        3.45294861       3.26190861       0.00023000
N        4.61821814       2.53687891      -0.00914000
N        4.31985813       1.30400946      -0.01062000
H        0.69486975      -1.05970952       0.00530000
H        2.80211893      -0.95977960      -0.00733000
H        1.34299943       2.73329885       0.01218999
H        3.46677863       4.34115842       0.00310000
