16
Properties=species:S:1:pos:R:3 atomization_energy=-1552.8 smiles=C.C.O.C.C.C.H.H.H.H.H.H.H.H.H.H pbc="F F F"
C        1.05380958       0.05861998      -0.13371995
C        2.52988908       0.19220993      -0.01650999
O        3.26937863      -0.38591984      -1.10039958
C        3.38740860       1.03753957      -0.94411960
C        2.79738898       1.81919923      -2.07610916
C        4.73434805       1.48210940      -0.46310983
H        0.55930977       0.82204969       0.47526980
H        0.73938969      -0.92316961       0.23575991
H        0.69260975       0.15407995      -1.16144949
H        2.87826897       0.00221000       0.99098963
H        1.97029922       1.29656947      -2.56510897
H        3.55404866       2.01062920      -2.84452900
H        2.42771915       2.78398893      -1.71514930
H        5.11814793       0.83674969       0.33424987
H        4.67766839       2.50284901      -0.07163997
H        5.46001792       1.46753941      -1.28276947
