16
Properties=species:S:1:pos:R:3 atomization_energy=-1643.1 smiles=C.C.C.C.N.C.C.H.H.H.H.H.H.H.H.H pbc="F F F"
C        0.99885959      -0.08990997      -0.12865995
C        2.44999898       0.14864994       0.07701997
C        3.11965889       1.28560946      -0.15962994
C        4.56989822       1.07075961       0.16268993
N        4.69997801      -0.31845987       0.68691974
C        4.48179827      -1.36343952      -0.31214988
C        3.33983860      -0.90935965       0.55281981
H        0.83021967      -1.06465963      -0.59682979
H        0.55535977       0.67186976      -0.77996967
H        0.47046983      -0.07245997       0.83004966
H        2.70588887       2.21005921      -0.52426979
H        5.20022775       1.22130953      -0.72003973
H        4.88584824       1.77399926       0.93996964
H        4.93067791      -2.32393908      -0.09135996
H        4.50635818      -1.08696963      -1.35943944
H        3.01766886      -1.52062941       1.38774949
