18
Properties=species:S:1:pos:R:3 atomization_energy=-1793.12 smiles=C.C.N.C.C.C.C.H.H.H.H.H.H.H.H.H.H.H pbc="F F F"
C        1.00147961       0.00735000      -0.07858997
C        2.51819908      -0.01936999       0.06611998
N        2.93982896      -1.25348946       0.76610968
C        3.34140860      -0.85244967       2.13507923
C        4.61954843      -1.55885935       2.56954899
C        3.49291864       0.62780976       2.07226919
C        3.02339880       1.09624961       0.91355964
H        0.65293974      -0.83938964      -0.68033976
H        0.67452971       0.92789962      -0.57560980
H        0.49556982      -0.04201998       0.89366962
H        2.98424885       0.01681000      -0.92486963
H        3.76525850      -1.60814937       0.28524989
H        2.53287895      -1.10504954       2.83138885
H        5.46375798      -1.31770953       1.91412928
H        4.48454818      -2.64589888       2.56112895
H        4.89522790      -1.26540946       3.58819867
H        3.88415850       1.23526950       2.87534899
H        2.98647870       2.13753921       0.63004976
