20
Properties=species:S:1:pos:R:3 atomization_energy=-1914.06 smiles=C.C.C.C.C.C.N.H.H.H.H.H.H.H.H.H.H.H.H.H pbc="F F F"
C        0.54795978       0.27964990       0.37013986
C        1.80488927       0.07519997      -0.46334983
C        2.91833892       1.03682958      -0.08948996
C        3.60134866       0.82235968       1.25182949
C        4.26178813      -0.54470975       1.37228941
C        3.74848856       1.62901931      -1.21457947
N        2.74398887       2.43086899      -0.53577982
H       -0.22199992      -0.44061983       0.07376997
H        0.14082994       1.28654952       0.22795991
H        0.74477968       0.14183994       1.43638950
H        1.53900934       0.19274992      -1.52097939
H        2.14990924      -0.95821962      -0.35551985
H        2.87798888       0.95291965       2.06401922
H        4.37597811       1.58497942       1.40666942
H        3.51332870      -1.34189951       1.42960948
H        4.86538821      -0.59286976       2.28289917
H        4.91075788      -0.74837969       0.51606981
H        3.51941872       1.35442953      -2.23754919
H        4.78285823       1.89425920      -1.03618960
H        3.17192880       3.08550888       0.12208995
