14
Properties=species:S:1:pos:R:3 atomization_energy=-1342.69 smiles=C.C.C.O.C.O.H.H.H.H.H.H.H.H pbc="F F F"
C        1.02571962      -0.00405000      -0.03253999
C        2.51634898      -0.01074000       0.00322000
C        3.32262860      -0.75741971      -1.02883957
O        2.57422898      -1.42927943      -2.05345915
C        3.30187864       0.75215974      -1.02785958
O        4.48516841       1.41514939      -0.55573979
H        0.63859975       0.76311968       0.64414972
H        0.63678972      -0.97299961       0.29338987
H        0.63378975       0.20318992      -1.03322957
H        2.88309884      -0.03306999       1.02286960
H        4.22511834      -1.25254952      -0.68527971
H        2.19928921      -0.81249971      -2.70411902
H        2.75212882       1.25370949      -1.81755933
H        4.96645798       0.89297963       0.10924996
