13
Properties=species:S:1:pos:R:3 atomization_energy=-1384.5 smiles=C.C.N.N.C.C.C.H.H.H.H.H.H pbc="F F F"
C        0.97136961       0.09327997      -0.00656000
C        2.45894892       0.04009998      -0.00075000
N        3.24318867       1.08765963       0.00475000
N        4.61685807       0.61983975       0.00843000
C        4.59625825      -0.67925972       0.00473000
C        3.23531870      -1.19721959      -0.00193000
C        2.84705887      -2.47173909      -0.00735999
H        0.63162974       1.13237954       0.00501000
H        0.58032978      -0.41770982       0.87749967
H        0.58860978      -0.39533984      -0.90672966
H        5.47047806      -1.34461952       0.00588000
H        1.79663930      -2.74285893      -0.01218999
H        3.57081860      -3.28011860      -0.00744000
