18
Properties=species:S:1:pos:R:3 atomization_energy=-1778.55 smiles=C.C.N.C.C.C.C.H.H.H.H.H.H.H.H.H.H.H pbc="F F F"
C        1.00336963       0.00302000       0.01926999
C        2.52138905      -0.00869000       0.06658997
N        3.04826883      -1.06532957       0.94252960
C        3.89125835      -0.27159990       1.86938930
C        4.58491798       0.78880972       0.95195960
C        3.09998866       1.21758953       0.75332973
C        2.97183895       0.92304963       2.28027921
H        0.62525976      -0.90406965      -0.46396981
H        0.64706976       0.86704969      -0.55150977
H        0.55040979       0.06316998       1.01383961
H        2.92026875      -0.11055996      -0.95047961
H        3.57529848      -1.73637931       0.38440986
H        4.46367836      -0.80212971       2.62791901
H        5.12228818       0.41423983       0.07431997
H        5.22800791       1.51453939       1.46475948
H        2.89136874       2.21874925       0.38038984
H        3.42627871       1.66593940       2.94733884
H        1.98158928       0.67621976       2.67346884
