12
Properties=species:S:1:pos:R:3 atomization_energy=-1242.44 smiles=O.C.C.O.N.C.C.H.H.H.H.H pbc="F F F"
O        0.84495967       0.03579999       0.03413999
C        2.07568916       0.00436000       0.05224998
C        2.91960890       1.24669948      -0.05446998
O        4.11784828       0.99777961       0.67645973
N        4.92159803       0.00720000       0.06401998
C        4.28098851      -1.09956953      -0.15220994
C        2.82612900      -1.29238948       0.12831995
H        2.40049916       2.08604912       0.41407985
H        3.14128872       1.47574939      -1.10085958
H        4.84074807      -1.96581921      -0.54182977
H        2.42505907      -1.97711923      -0.62504975
H        2.71299880      -1.73406935       1.12177960
