13
Properties=species:S:1:pos:R:3 atomization_energy=-1321.35 smiles=C.C.N.C.C.N.S.H.H.H.H.H.H pbc="F F F"
C        0.88235964       0.12267995      -0.00534000
C        2.36534916       0.00411000      -0.00646000
N        3.19338882       1.02628957      -0.01271000
C        4.49441837       0.55865976      -0.00905000
C        4.64893796      -0.81368970      -0.00059000
N        5.78503774      -1.53585936       0.00744000
S        3.10203885      -1.54932944       0.00024000
H        0.58337977       1.17537956       0.00592000
H        0.45366983      -0.35836987       0.87919963
H        0.45477981      -0.33954987      -0.90041968
H        5.30671810       1.27396954      -0.01159999
H        6.70591713      -1.11290953      -0.02670999
H        5.76184749      -2.55016894      -0.01813999
