14
Properties=species:S:1:pos:R:3 atomization_energy=-1453.44 smiles=C.C.N.C.C.C.S.H.H.H.H.H.H.H pbc="F F F"
C        0.93806964       0.08492997      -0.00550000
C        2.42322916       0.00072000      -0.00131000
N        3.22752874       1.04196956       0.00367000
C        4.54808822       0.62458976       0.00640000
C        5.61549788       1.65503933       0.01185999
C        4.72027806      -0.74637971       0.00316000
S        3.19805871      -1.53214934      -0.00327000
H        0.61383975       1.13088952       0.00255000
H        0.51716978      -0.40448984       0.87893967
H        0.52349980      -0.38894984      -0.90131961
H        6.61173751       1.20076951       0.02692999
H        5.51922795       2.29554904       0.89438965
H        5.54003771       2.28296906      -0.88166964
H        5.64227780      -1.30928948       0.00420000
