16
Properties=species:S:1:pos:R:3 atomization_energy=-1557.15 smiles=O.N.C.C.C.C.C.H.H.H.H.H.H.H.H.H pbc="F F F"
O        0.77990968       1.63069933      -0.37101987
N        2.12428904       1.99761926      -0.49437979
C        2.86199890       1.04702956      -0.01861999
C        4.40339845       1.13242950      -0.01785999
C        5.11357821       2.15101925      -0.95073964
C        6.15974764       2.34210920       0.16441993
C        5.07716782       1.88538925       1.16047953
H        0.31802986       2.39976916      -0.75489967
H        2.41940912       0.12161995       0.39031983
H        4.82931797       0.12457994      -0.14025994
H        4.53911835       3.05890888      -1.16837951
H        5.49882799       1.74382927      -1.88941923
H        7.01082715       1.65551939       0.09237996
H        6.53208764       3.36041874       0.29927988
H        5.43127790       1.25802953       1.98288916
H        4.47903827       2.70703900       1.57186943
