11
Properties=species:S:1:pos:R:3 atomization_energy=-1142.8 smiles=C.N.C.N.S.C.C.H.H.H.H pbc="F F F"
C        2.15210907       0.35761985       0.57526978
N        1.84327933       0.27346990      -0.83379968
C        2.58990910       1.36564944      -1.08209963
N        3.18933865       2.08573913      -1.99633918
S        4.12824837       3.20618883      -1.11431956
C        3.79987860       2.52536907       0.46981982
C        2.93662890       1.52012941       0.22630991
H        2.71286885      -0.47768982       1.00605961
H        1.29621948       0.55127977       1.22979946
H        2.14116924      -0.57026977      -1.31120948
H        4.27118847       2.88710889       1.37114950
