18
Properties=species:S:1:pos:R:3 atomization_energy=-1713.6 smiles=O.C.C.N.C.C.C.H.H.H.H.H.H.H.H.H.H.H pbc="F F F"
O        2.58304897      -0.59166974      -1.00682960
C        2.13896917       0.21738991       0.08318996
C        2.67098893       1.64555936      -0.07635997
N        4.13772845       1.65424940       0.01998999
C        4.66996825       2.98401873      -0.25250991
C        6.16308750       2.94943874      -0.14276994
C        7.00579718       3.33039864      -1.11104960
H        2.31542921      -1.50418939      -0.80195971
H        2.48622896      -0.23001991       1.02091959
H        1.04443957       0.22246992       0.07950997
H        2.24149918       2.28108920       0.70474972
H        2.36300904       2.02999916      -1.05560958
H        4.49069799       1.00082960      -0.68471973
H        4.28959856       3.69834858       0.48607980
H        4.36211806       3.32953869      -1.24618951
H        6.56994742       2.59484898       0.80225966
H        6.64750749       3.69443845      -2.06937923
H        8.07999657       3.28160862      -0.96202964
