14
Properties=species:S:1:pos:R:3 atomization_energy=-1411.06 smiles=O.C.O.C.C.C.N.H.H.H.H.H.H.H pbc="F F F"
O        1.28434944      -0.00427000       0.83628969
C        2.06720919       0.14499995      -0.27247991
O        1.89221923      -0.54670980      -1.26889945
C        3.15729863       1.26070954      -0.07631997
C        2.80314894       2.69054889      -0.53340979
C        3.46375874       3.13901875       0.77755971
N        3.17056874       1.79786929       1.33812944
H        1.59599936       0.66281971       1.49285947
H        4.15127839       0.93264963      -0.40759983
H        1.72818927       2.90003884      -0.58798974
H        3.28407869       3.03561870      -1.45204943
H        4.53514816       3.35350864       0.68856973
H        2.97504885       3.96884844       1.29457946
H        3.93380847       1.42678943       1.90967929
