13
Properties=species:S:1:pos:R:3 atomization_energy=-1312.82 smiles=C.C.N.N.C.C.S.H.H.H.H.H.H pbc="F F F"
C        0.97151962       0.19483993       0.00940000
C        2.43327901      -0.06140997      -0.00100000
N        3.35358863       0.87955964      -0.00862000
N        4.63188793       0.35856984      -0.01714999
C        4.63276806      -0.95761964      -0.01543999
C        5.85754765      -1.79637927      -0.02363999
S        3.06470871      -1.65782935      -0.00321000
H        0.38327986      -0.72833973      -0.00157000
H        0.68853971       0.78636967      -0.86761964
H        0.69672975       0.76075969       0.90569964
H        5.63252772      -2.86719894      -0.01024999
H        6.47254755      -1.56870936       0.85261968
H        6.44897730      -1.58559940      -0.92018964
