13
Properties=species:S:1:pos:R:3 atomization_energy=-1203.4 smiles=C.S.O.O.C.C.O.H.H.H.H.H.H pbc="F F F"
C        1.12236956       0.16607994       0.01650999
S        2.86111877      -0.13960995      -0.13899995
O        3.26120865      -0.95663965       0.98959960
O        3.11078869      -0.54947976      -1.50596946
C        3.57573855       1.51746946       0.05110998
C        4.28641818       1.76388935       1.35090951
O        5.00563796       1.44027944       0.15173994
H        0.81397970       0.85999968      -0.76754967
H        0.92514966       0.58607978       1.00433959
H        0.59701979      -0.78419968      -0.09776996
H        3.15516871       2.33096903      -0.51739978
H        4.27552807       1.01865958       2.13646907
H        4.35967852       2.78185900       1.71164934
