13
Properties=species:S:1:pos:R:3 atomization_energy=-1350.17 smiles=O.C.C.C.C.N.N.H.H.H.H.H.H pbc="F F F"
O        3.23946879      -0.74587971      -0.77022968
C        2.23328908       0.02855999      -0.13360995
C        2.71957885       1.42140948      -0.07370997
C        2.13335909       2.58919904       0.36438986
C        3.11206876       3.58143871       0.16453993
N        4.23569809       3.08898878      -0.35890986
N        3.97195843       1.77840925      -0.49641980
H        2.88997890      -1.65212931      -0.82488967
H        2.06195918      -0.36805987       0.87106964
H        1.31054950      -0.03772999      -0.71714972
H        1.14018957       2.71181890       0.77107972
H        3.05226878       4.64027795       0.37899984
H        4.67786824       1.16173954      -0.88792966
