12
Properties=species:S:1:pos:R:3 atomization_energy=-1266.38 smiles=O.N.C.C.C.C.C.H.H.H.H.H pbc="F F F"
O        0.99196962       0.08314997       0.00000000
N        2.38783894      -0.04326998       0.00000000
C        2.91013891       1.13219950       0.00000000
C        4.34290808       1.10055956       0.00000000
C        5.53306782       1.10055956       0.00000000
C        6.93906717       1.10055956       0.00000000
C        7.64264696       2.23828902      -0.00000000
H        0.69916973      -0.84774969       0.00000000
H        2.36664918       2.08936917      -0.00000000
H        7.45296703       0.14354995      -0.00000000
H        7.15936700       3.21054886       0.00000000
H        8.72682706       2.21658904       0.00000000
