17
Properties=species:S:1:pos:R:3 atomization_energy=-1775.09 smiles=C.C.C.C.C.C.C.H.H.H.H.H.H.H.H.H.H pbc="F F F"
C        1.01239962       0.02364999       0.57021975
C        2.26914913       0.00338000       0.10971996
C        3.04796880      -1.24298945      -0.25284991
C        4.11238834      -0.79095970      -1.22167957
C        5.33753784      -0.04524998      -0.76452971
C        4.12696829       0.70952969      -1.24901954
C        3.07288879       1.21818957      -0.29809989
H        0.49214982       0.96083964       0.74353972
H        0.47317981      -0.89487962       0.77734971
H        2.40056906      -1.99489925      -0.71563971
H        3.51339860      -1.67398940       0.64033977
H        4.12871846      -1.33624944      -2.15450924
H        5.57212769      -0.02835999       0.29346990
H        6.20944731      -0.06627997      -1.40864946
H        4.15582843       1.21918956      -2.20121904
H        3.54730864       1.67267930       0.57829978
H        2.44114897       1.96544916      -0.78895966
