14
Properties=species:S:1:pos:R:3 atomization_energy=-1386.71 smiles=O.C.C.O.C.C.N.H.H.H.H.H.H.H pbc="F F F"
O        0.93819966      -0.35807985      -0.44953984
C        2.34699913      -0.51914980      -0.33452987
C        3.00743885       0.71249969       0.26354989
O        2.37004909       1.62057933       0.79130968
C        4.48529811       0.79179971       0.15618994
C        5.30422810       0.92448962       1.41506940
N        5.23465785      -0.34587985       0.70129972
H        0.66907973       0.21373992       0.29667989
H        2.74856893      -0.69991972      -1.33536943
H        2.54473902      -1.38315946       0.30519989
H        4.86963798       1.25028952      -0.74694972
H        4.78563791       0.97353960       2.36582910
H        6.24100739       1.46542942       1.36850949
H        6.09756766      -0.50471979       0.17605992
