12
Properties=species:S:1:pos:R:3 atomization_energy=-1240.76 smiles=O.C.C.C.C.N.O.H.H.H.H.H pbc="F F F"
O        2.03589917      -0.85157964      -0.62766977
C        2.11105918       0.11386995       0.12948995
C        3.07278886       1.26135954      -0.05889998
C        3.47728873       1.48261936      -1.49223936
C        3.35940866       2.95414876      -1.53066941
N        2.76507897       3.49855875      -0.52605979
O        2.38662902       2.45224902       0.34487986
H        1.52379944       0.13693995       1.06320961
H        3.93221852       1.11606960       0.60430977
H        2.80224888       1.04994960      -2.23556914
H        4.50038802       1.16172957      -1.69980933
H        3.73765851       3.52554860      -2.39001909
