13
Properties=species:S:1:pos:R:3 atomization_energy=-1330.8 smiles=C.C.N.C.C.N.S.H.H.H.H.H.H pbc="F F F"
C        1.24590955       0.19323993       0.00495000
C        2.71020903      -0.03718998      -0.00004000
N        3.63537856       0.89892966      -0.00680000
C        4.88080817       0.28028987      -0.00885999
C        6.10943783       1.10747962      -0.01627999
N        4.95597816      -1.05317957      -0.00429000
S        3.38343867      -1.61623936       0.00370000
H        0.67453974      -0.73989972      -0.00718000
H        0.95618962       0.77891971      -0.87339967
H        0.95851964       0.75514973       0.89936967
H        7.01426744       0.49102982      -0.00935000
H        6.13306764       1.75657932       0.86490966
H        6.13424754       1.73872928      -0.91030961
