17
Properties=species:S:1:pos:R:3 atomization_energy=-1661.23 smiles=C.C.C.C.C.N.N.H.H.H.H.H.H.H.H.H.H pbc="F F F"
C        0.98024959      -0.07151998       0.41773982
C        2.41713915      -0.02697999      -0.09535997
C        2.70730899       1.29884953      -0.79371970
C        3.97127839       1.24881956      -1.64180935
C        4.48719816      -0.14435994      -1.88955928
N        3.86004851      -1.24792946      -1.61037934
N        2.63125887      -1.09918953      -1.06661961
H        0.79948970       0.73814973       1.13272952
H        0.77194970      -1.01970960       0.92534963
H        0.25747990       0.03645999      -0.39945984
H        3.09886881      -0.16350993       0.75279971
H        2.79887899       2.09959918      -0.04882998
H        1.86535932       1.58441938      -1.43842947
H        4.77668822       1.81407930      -1.15996956
H        3.79719859       1.71921928      -2.61648891
H        5.47925768      -0.22275991      -2.36367899
H        2.30524916      -1.99462925      -0.69605975
