12
Properties=species:S:1:pos:R:3 atomization_energy=-1205.43 smiles=O.C.C.N.O.C.C.H.H.H.H.H pbc="F F F"
O        1.63356934      -0.59719977       0.97115961
C        2.39117906      -0.13829994      -0.13846995
C        2.86666879       1.28250945       0.05166998
N        2.14859914       2.33319914       0.30171990
O        0.78759966       2.01030924       0.39386985
C        4.26596824       1.60388939      -0.06049998
C        5.43373762       1.86997926      -0.15440993
H        0.96393959       0.09887996       1.12555953
H        1.76472936      -0.18722992      -1.03460956
H        3.24308874      -0.81070967      -0.27429988
H        0.37984985       2.88511875       0.55028981
H        6.46774720       2.11490913      -0.23250991
