20
Properties=species:S:1:pos:R:3 atomization_energy=-1933.61 smiles=C.C.C.N.C.C.C.H.H.H.H.H.H.H.H.H.H.H.H.H pbc="F F F"
C        0.99046964       0.02775999      -0.01070000
C        2.50807908       0.00063000       0.04162998
C        3.10025890       1.08985957       0.91947965
N        4.46953800       0.61735977       1.15124950
C        4.34146828      -0.83220968       1.38976941
C        5.58623755      -1.58118941       0.93403967
C        3.07599877      -1.27882944       0.64867976
H        0.61108978      -0.79138968      -0.62922975
H        0.63614974       0.97118964      -0.44105983
H        0.55224979      -0.07158998       0.98812958
H        2.89780874       0.10858996      -0.97980959
H        2.57061887       1.18430956       1.87489921
H        3.09523877       2.06735920       0.42726983
H        5.01036817       0.76739972       0.29814988
H        4.20744834      -0.99727962       2.46605911
H        5.76671748      -1.44907949      -0.13878995
H        5.48080800      -2.65418897       1.12681954
H        6.47345746      -1.22911956       1.47177946
H        3.27252873      -2.02178918      -0.13199994
H        2.37159916      -1.72373929       1.36218947
