20
Properties=species:S:1:pos:R:3 atomization_energy=-1933.2 smiles=C.C.C.C.C.C.N.H.H.H.H.H.H.H.H.H.H.H.H.H pbc="F F F"
C        2.30497916      -0.33110986      -1.56556935
C        2.40775899       0.12128995      -0.11602995
C        3.15250888       1.44766946       0.03087999
C        2.44799901       2.63716897      -0.60832978
C        2.95512882       3.84130837       0.17562994
C        3.63434854       3.26175873       1.40833947
N        3.23235861       1.85749933       1.43606941
H        1.81354928      -1.30766952      -1.62127942
H        3.29718881      -0.42479983      -2.01836921
H        1.71800935       0.37329984      -2.16275921
H        2.92978895      -0.65556973       0.45651982
H        1.39772944       0.19857992       0.30574988
H        4.16733827       1.35092944      -0.37809984
H        1.35860952       2.56228891      -0.50051980
H        2.67381883       2.72807888      -1.67564936
H        3.66642867       4.42568838      -0.41803984
H        2.12124921       4.49820838       0.44589983
H        4.72359823       3.34261878       1.31362946
H        3.33261865       3.77992854       2.32314903
H        3.91373854       1.29437948       1.94194917
