14
Properties=species:S:1:pos:R:3 atomization_energy=-1444.4 smiles=C.C.C.C.S.N.C.H.H.H.H.H.H.H pbc="F F F"
C        0.94285965      -0.15591993       0.00932000
C        2.45226896       0.03123999       0.00771000
C        2.84628875       1.47321939      -0.00145000
C        3.07523874       2.25718914       1.11607957
S        3.50011866       3.83865838       0.62033974
N        3.39858863       3.53890853      -1.00657960
C        3.04932887       2.26700911      -1.17680952
H        0.69226973      -1.22144957       0.01538000
H        0.48673980       0.29587988      -0.87826966
H        0.48748980       0.30580987       0.89218964
H        2.87852887      -0.47091980      -0.86906966
H        2.87934894      -0.46216980       0.88915965
H        3.01504891       1.99069920       2.16130906
H        2.94206891       1.92172924      -2.19765915
