15
Properties=species:S:1:pos:R:3 atomization_energy=-1468.02 smiles=O.C.C.N.N.C.C.H.H.H.H.H.H.H.H pbc="F F F"
O        0.62157976       0.03057999      -0.72037968
C        1.85718921      -0.42961983      -0.18570992
C        2.86179880       0.72401969      -0.12173995
N        2.41951913       1.94818920      -0.11127995
N        4.21144829       0.51208979      -0.06674997
C        4.94964818      -0.63673976      -0.01787000
C        6.28213738      -0.71657970       0.03078999
H        0.80645966       0.30164987      -1.63836931
H        2.23074911      -1.24132949      -0.81447969
H        1.68395939      -0.80228969       0.82767970
H        1.38691945       1.90644920      -0.12887995
H        4.74030811       1.37899940      -0.03085999
H        4.36683817      -1.55453944      -0.01685999
H        6.90935718       0.16877993       0.03382999
H        6.77808740      -1.68153928       0.06787997
