16
Properties=species:S:1:pos:R:3 atomization_energy=-1608.61 smiles=C.C.C.C.C.N.C.H.H.H.H.H.H.H.H.H pbc="F F F"
C        1.01903959       0.00262000      -0.08542996
C        2.50964909       0.02523999      -0.03591998
C        3.36568867      -0.73957970      -1.03199958
C        2.75545884      -1.51028937      -2.07493923
C        2.24861921      -2.15819908      -2.95067896
N        3.23629876       0.71837971      -1.09129963
C        4.43078850       1.41514939      -0.62775973
H        0.61200978       0.76189972       0.59035976
H        0.64515974      -0.97286959       0.24160990
H        0.62572973       0.20425991      -1.08748955
H        2.87247897       0.08576997       0.98404964
H        4.30473844      -1.13792956      -0.65822974
H        1.79675928      -2.72300904      -3.73165858
H        4.19612825       2.47353897      -0.47508982
H        5.21476809       1.35780951      -1.39042951
H        4.84540812       1.02798959       0.31086987
