14
Properties=species:S:1:pos:R:3 atomization_energy=-1427.68 smiles=C.C.C.O.C.C.H.H.H.H.H.H.H.H pbc="F F F"
C        1.00332957       0.02981999       0.04978998
C        2.48177909       0.03087999      -0.04162998
C        3.30711881      -1.00547962      -0.15257993
O        4.65221826      -0.70953973      -0.19399992
C        4.67830831       0.72816972      -0.32268989
C        3.29329863       1.26891951       0.02686999
H        0.59837979      -0.98586964      -0.00461000
H        0.57092975       0.60891974      -0.77225968
H        0.67770971       0.47365980       0.99560963
H        3.07354888      -2.05653923      -0.18388992
H        4.94551802       0.96999964      -1.35862946
H        5.45331802       1.13566956       0.33444988
H        2.97588886       2.03759925      -0.68341972
H        3.27527864       1.69007931       1.03759957
