14
Properties=species:S:1:pos:R:3 atomization_energy=-1541.79 smiles=C.C.C.C.C.C.N.H.H.H.H.H.H.H pbc="F F F"
C        3.00328876      -1.11282954       0.46350981
C        2.39707906       0.01243000       0.06584997
C        3.01157885       1.28858949       0.04584998
C        2.47575898       2.55856905      -0.06983997
C        3.54203870       3.48964868      -0.05282998
C        4.70765796       2.76887883       0.05959998
N        4.37791804       1.43832942       0.11186996
H        2.45217912      -2.04924913       0.46028981
H        4.02542843      -1.15795949       0.81855970
H        1.35359949      -0.04118998      -0.24000991
H        1.42196940       2.79136886      -0.15308994
H        3.46597874       4.56699843      -0.12032995
H        5.74153785       3.08360883       0.10187996
H        5.04688807       0.68402973       0.17334993
