17
Properties=species:S:1:pos:R:3 atomization_energy=-1744.84 smiles=C.C.C.C.C.C.C.H.H.H.H.H.H.H.H.H.H pbc="F F F"
C        2.10705923      -0.19369993      -0.05020998
C        0.77387972      -0.81128965       0.22306991
C       -0.39907983      -1.37506947      -0.51931980
C       -1.62704936      -0.50129979      -0.23730991
C       -1.51048935       0.74316968       0.28598988
C       -0.14188995       1.39314951       0.52067981
C        0.88770963       0.64292976      -0.26791990
H        2.65422884      -0.54233980      -0.91915963
H        2.74297904       0.05382997       0.79255967
H        0.63193972      -1.01720962       1.28580943
H       -0.59781974      -2.39040894      -0.15917994
H       -0.21781991      -1.43188942      -1.59827943
H       -2.60542898      -0.92864962      -0.43306983
H       -2.39379901       1.33113948       0.51439979
H        0.08758997       1.41004939       1.59189936
H       -0.17806993       2.43026895       0.16966994
H        0.73812974       0.87420965      -1.32437953
