13
Properties=species:S:1:pos:R:3 atomization_energy=-1360.84 smiles=C.O.C.C.C.C.S.H.H.H.H.H.H pbc="F F F"
C        2.98284892      -1.22803958       0.53105977
O        2.33234903       0.01104999       0.28029988
C        3.08502869       1.11850952       0.19393993
C        2.58700905       2.38616902      -0.04419999
C        3.59279867       3.39321877      -0.08982997
C        4.84664807       2.86781892       0.11607995
S        4.79824791       1.17980949       0.36022987
H        2.21492920      -2.00671920       0.56748978
H        3.49257875      -1.21905949       1.50004940
H        3.67560849      -1.48274943      -0.27766989
H        1.52981943       2.57357897      -0.18011993
H        3.40430873       4.44597834      -0.26448990
H        5.79093775       3.39476859       0.13498995
