13
Properties=species:S:1:pos:R:3 atomization_energy=-1296.8 smiles=C.N.S.C.C.C.N.H.H.H.H.H.H pbc="F F F"
C        0.86502965      -0.01968999      -0.00709000
N        2.30423907       0.01063000       0.05201998
S        3.13714872       1.46262943      -0.00660000
C        4.66368823       0.62582978      -0.02337999
C        4.58012823      -0.71075974      -0.01148000
C        3.14666868      -1.07667956       0.01810999
N        2.82185880      -2.32664912       0.00852000
H        0.41909982       0.98070959       0.02879999
H        0.46457982      -0.58660974       0.84009964
H        0.52975982      -0.50157982      -0.93148960
H        5.59823792       1.16983950      -0.04454998
H        5.37641805      -1.43190948      -0.02196999
H        1.80515926      -2.41597892       0.03356998
