10
Properties=species:S:1:pos:R:3 atomization_energy=-1068.82 smiles=O.N.C.C.O.C.C.H.H.H pbc="F F F"
O        0.95591962      -0.04508998       0.02077999
N        2.35713906      -0.05903998       0.01815999
C        2.85745896       1.13944961      -0.01587999
C        2.05720917       2.41209908      -0.03106999
O        2.55295897       3.46520863      -0.40366983
C        4.29879806       1.09248963      -0.02578999
C        5.49982772       1.05692959      -0.03385999
H        0.73771970      -0.99831960       0.02063999
H        1.02197963       2.32424920       0.33008988
H        6.56452734       1.02566959      -0.04400998
