23
Properties=species:S:1:pos:R:3 atomization_energy=-2191.85 smiles=C.C.C.C.C.C.C.H.H.H.H.H.H.H.H.H.H.H.H.H.H.H.H pbc="F F F"
C        2.21962913      -0.47432980      -1.12267954
C        3.41274871       0.27672989      -0.55393978
C        3.10440874       1.76413929      -0.37279985
C        4.29696815       2.50667889       0.23565990
C        4.10058832       4.03326836       0.31063987
C        2.90610893       4.43015818       1.17943957
C        5.37301764       4.69300811       0.84853967
H        2.46422895      -1.53362939      -1.25051952
H        1.93091927      -0.07179997      -2.09900923
H        1.35652943      -0.40396985      -0.45293981
H        4.26930810       0.15361995      -1.22701953
H        3.69037844      -0.16656993       0.40947985
H        2.22725912       1.86910921       0.27526990
H        2.84925894       2.20623917      -1.34326942
H        5.18951781       2.29743900      -0.36803987
H        4.49717837       2.10991915       1.23903945
H        3.92777850       4.41411849      -0.70418974
H        2.98633891       4.00178852       2.18375923
H        1.96410929       4.09336837       0.73755972
H        2.84421888       5.51891759       1.27998954
H        5.59161775       4.36035830       1.86897926
H        5.26997817       5.78296761       0.86225968
H        6.23518762       4.44813829       0.21954991
