13
Properties=species:S:1:pos:R:3 atomization_energy=-1430.74 smiles=C.C.C.C.N.C.N.H.H.H.H.H.H pbc="F F F"
C        1.02915959      -0.01725999       0.04953998
C        2.52393911       0.04786998      -0.00522000
C        3.18271874       1.26068948      -0.06916997
C        4.55743810       1.20549959      -0.13247995
N        5.25611812       0.05698998      -0.14083993
C        4.52281825      -1.06381962      -0.08304997
N        3.18341870      -1.13033957      -0.01638999
H        0.58684977       0.96810962       0.23008991
H        0.71249969      -0.68181975       0.86025964
H        0.63934975      -0.40344983      -0.89789964
H        2.65808900       2.20698909      -0.06812998
H        5.15325780       2.11199912      -0.18087992
H        5.06064819      -2.00499919      -0.09184997
