16
Properties=species:S:1:pos:R:3 atomization_energy=-1548.78 smiles=C.C.C.C.C.O.H.H.H.H.H.H.H.H.H.H pbc="F F F"
C        2.14356917      -0.47106981      -1.36752944
C        2.48430897       0.10741996      -0.00415000
C        3.31064867       1.37535940      -0.15449994
C        2.59036909       2.64575883      -0.63054976
C        3.12889875       3.26782881       0.65307972
O        3.56341848       1.97804920       1.14440956
H        1.56803942      -1.39527943      -1.25600949
H        3.05198869      -0.69950975      -1.93476922
H        1.54811938       0.23229991      -1.95852923
H        3.05051886      -0.63615978       0.56820980
H        1.56070933       0.30821988       0.55088979
H        4.26418830       1.19541958      -0.66794973
H        1.49944935       2.58153901      -0.67495974
H        2.97597894       3.08023869      -1.55599943
H        3.97502854       3.94957841       0.52719979
H        2.37682898       3.71963852       1.30503947
