16
Properties=species:S:1:pos:R:3 atomization_energy=-1567.57 smiles=C.C.C.C.C.O.H.H.H.H.H.H.H.H.H.H pbc="F F F"
C        1.04720960      -0.03989998       0.04419999
C        2.56087889       0.04421998       0.03033999
C        3.11386889       1.17489950       0.87952968
C        4.49868832       0.66474973       1.19085958
C        4.25401834      -0.81763970       1.37980951
O        3.12411884      -1.16522953       0.56461976
H        0.70757974      -0.89042963      -0.55659979
H        0.59615979       0.87365963      -0.35452986
H        0.67081974      -0.20483991       1.05976958
H        2.91611891       0.13735994      -1.00280958
H        2.54419904       1.28374952       1.81067926
H        3.11177883       2.13756924       0.36072986
H        5.15735818       0.82840970       0.32968987
H        4.95623806       1.13633950       2.06442913
H        5.11666775      -1.42438938       1.09010951
H        3.99796848      -1.04828958       2.41913912
