13
Properties=species:S:1:pos:R:3 atomization_energy=-1347.54 smiles=O.C.N.C.C.C.N.H.H.H.H.H.H pbc="F F F"
O        1.74083927       0.23672990       0.98391962
C        2.62135891      -0.00003000       0.17378993
N        2.74999890      -1.20394952      -0.51452980
C        4.03864831      -1.32876946      -1.13770953
C        4.63304815       0.03872998      -0.96174961
C        3.95380849       1.25493948      -1.50176941
N        3.71595852       0.81934968      -0.16149994
H        2.14204912      -1.97284928      -0.26811991
H        4.61364842      -2.09269919      -0.60730974
H        3.91128840      -1.60565936      -2.18704912
H        5.65433772       0.06817997      -0.61606973
H        4.50172840       2.18497925      -1.55718943
H        3.10939884       1.15543959      -2.17106924
