20
Properties=species:S:1:pos:R:3 atomization_energy=-1937.27 smiles=C.C.C.C.C.N.C.H.H.H.H.H.H.H.H.H.H.H.H.H pbc="F F F"
C        0.98269960       0.01243999       0.00777000
C        2.50065902       0.01683999       0.04268998
C        3.08143878       1.12341951       0.92083965
C        4.51129832       0.65235976       1.13593956
C        4.35122845      -0.84627967       1.39843951
N        5.54729779      -1.59369936       1.03580959
C        3.10206888      -1.27500953       0.61333975
H        0.61348977      -0.80771967      -0.61618978
H        0.60428977       0.95193960      -0.40809985
H        0.55867976      -0.10763996       1.01045957
H        2.87404898       0.14927994      -0.98215961
H        2.55205890       1.18961949       1.87846932
H        3.03926893       2.10268923       0.43498982
H        5.10215820       0.84121968       0.23024991
H        4.99820782       1.16959953       1.96838920
H        4.16370848      -0.99975959       2.46846913
H        5.74813783      -1.46263939       0.04483998
H        5.37412790      -2.59116899       1.15536956
H        3.32679863      -1.97743919      -0.19808993
H        2.40343907      -1.78573935       1.28872953
