12
Properties=species:S:1:pos:R:3 atomization_energy=-1328.7 smiles=O.C.C.C.C.C.N.H.H.H.H.H pbc="F F F"
O        1.43602942      -1.03196961       0.11422996
C        2.56086905      -0.56859979      -0.02117999
C        2.79813891       0.88815966       0.04693998
C        4.03697839       1.38846939      -0.07202997
C        4.35058804       2.85940897      -0.00851000
C        5.01728810       3.30096873      -1.24276954
N        5.55165757       3.64762848      -2.21357923
H        3.44502869      -1.20405953      -0.19472993
H        1.91708925       1.50271944       0.19635993
H        4.88689794       0.72225974      -0.21541991
H        5.00612799       3.04154874       0.85052969
H        3.44082863       3.44958857       0.15078994
