19
Properties=species:S:1:pos:R:3 atomization_energy=-1786.91 smiles=C.C.C.C.C.N.N.H.H.H.H.H.H.H.H.H.H.H.H pbc="F F F"
C        0.98562961      -0.08008997       0.10987996
C        2.48987893       0.06981997       0.01128000
C        3.14390868       1.13963961       0.90775961
C        4.20031847       0.05627998       1.23189949
C        5.49143771       0.04255999       0.39925983
N        6.36583768       1.15635959       0.76252973
N        3.20747874      -0.96161960       0.79354970
H        0.64734972      -0.97296965      -0.42675985
H        0.48668981       0.78519967      -0.33824986
H        0.64712975      -0.16009994       1.14867951
H        2.82531877       0.12505995      -1.03285959
H        2.54513897       1.44042945       1.77606926
H        3.49645859       2.03776920       0.39393984
H        4.42885816      -0.01818999       2.30308920
H        5.27777773       0.09266996      -0.67453974
H        6.03094767      -0.89387963       0.58226977
H        5.92468745       2.03820926       0.50361979
H        7.22512704       1.10070957       0.21678991
H        3.58203850      -1.73641931       0.24862990
