12
Properties=species:S:1:pos:R:3 atomization_energy=-1243.51 smiles=O.C.C.C.N.C.S.H.H.H.H.H pbc="F F F"
O        1.97238928      -0.41037982      -1.28229951
C        2.48864907      -0.13805994       0.01273999
C        2.96712893       1.26670947       0.00348000
C        2.25164920       2.43060909      -0.20086992
N        2.97331887       3.60644852      -0.12192995
C        4.23341852       3.32045880       0.11867995
S        4.61443821       1.65708939       0.28705989
H        1.72323929      -1.34937950      -1.29285944
H        3.28780865      -0.85347969       0.23065991
H        1.68707934      -0.26783989       0.74639971
H        1.18964952       2.47548898      -0.41224985
H        4.99181828       4.08665837       0.21067992
