15
Properties=species:S:1:pos:R:3 atomization_energy=-1518.88 smiles=C.C.C.C.N.N.C.H.H.H.H.H.H.H.H pbc="F F F"
C        0.92933962      -0.05742998      -0.03275999
C        2.41282908       0.05598998      -0.02672999
C        3.10052890       1.20810957      -0.01101999
C        4.59687798       1.23206956       0.03484999
N        5.18134782      -0.06816997      -0.28165988
N        4.54517833      -1.23404948      -0.00329000
C        3.24847879      -1.16856952       0.06112998
H        0.60157973      -1.10172962      -0.04573998
H        0.50765980       0.43322984      -0.91589963
H        0.50623981       0.41048984       0.86275968
H        2.58407898       2.16203906      -0.01709999
H        4.96804818       1.96285923      -0.69216974
H        4.91769800       1.55903940       1.03054962
H        6.16230779      -0.10951996      -0.00574000
H        2.69718899      -2.10868916       0.22721991
