14
Properties=species:S:1:pos:R:3 atomization_energy=-1357.53 smiles=O.N.C.C.C.C.O.H.H.H.H.H.H.H pbc="F F F"
O        0.89419965       1.14240958      -1.04076960
N        2.23838920       0.76514968      -1.14380951
C        2.89509896       1.29403947      -0.16632994
C        4.34188816       1.02580958      -0.07318997
C        5.26466811       1.37526944      -1.21450958
C        5.29336776       2.18890906       0.04277999
O        6.42542772       1.97280916       0.89551965
H        0.49123981       0.68499975      -1.80262926
H        2.42944913       1.93002930       0.60666976
H        4.58656823       0.13394995       0.49441982
H        4.83192808       1.82048927      -2.10324916
H        6.08705756       0.69891973      -1.41461949
H        4.88154801       3.19249885      -0.00233000
H        7.19880738       2.47635902       0.58654975
