15
Properties=species:S:1:pos:R:3 atomization_energy=-1471.76 smiles=O.C.N.C.C.C.N.H.H.H.H.H.H.H.H pbc="F F F"
O        2.89119893      -1.06014959       0.63127975
C        2.39314900       0.01412999       0.32622987
N        3.08341882       1.14875949       0.00225000
C        4.52038830       1.14814961      -0.13677994
C        5.02632812       2.54992897       0.00916000
C        5.98612758       3.13318889      -0.99372963
N        4.59405843       3.57695857      -0.94634965
H        1.30367953       0.17163993       0.28859990
H        2.58563889       1.93121930      -0.40470984
H        4.75314824       0.72767969      -1.12155957
H        4.96779786       0.49728980       0.62199976
H        5.09297789       2.85984878       1.04544959
H        6.26584738       2.54508901      -1.85900928
H        6.73352721       3.83530843      -0.64693974
H        4.52566808       4.48978809      -0.49075982
