15
Properties=species:S:1:pos:R:3 atomization_energy=-1471.66 smiles=O.C.N.C.C.C.N.H.H.H.H.H.H.H.H pbc="F F F"
O        1.54944942      -0.12064995       1.06544955
C        2.42360917       0.06646998       0.22748991
N        2.90889896       1.29628951      -0.15972994
C        2.55847897       2.53715899       0.50220979
C        3.32105860       3.57271865      -0.29268987
C        4.53113812       2.79308900      -0.78810968
N        4.03401829       1.42131939      -1.00836958
H        2.89885894      -0.76542971      -0.31936987
H        2.89637878       2.48147907       1.54290937
H        1.47532938       2.68838894       0.48506981
H        2.71889882       3.90505834      -1.14738959
H        3.58811868       4.44994801       0.30283987
H        4.95750830       3.22126865      -1.70011931
H        5.31235771       2.77085887      -0.01973999
H        3.68866865       1.35619951      -1.97033922
