11
Properties=species:S:1:pos:R:3 atomization_energy=-1167.58 smiles=O.C.N.N.C.C.C.H.H.H.H pbc="F F F"
O        0.78386970       2.20130912       0.24878990
C        1.91215920       1.73409938       0.15655994
N        3.05004877       2.49455892       0.21175992
N        4.27354828       1.90966919       0.10230996
C        5.27002813       2.72139891       0.16820993
C        6.53140736       2.05002921       0.04712999
C        7.59103714       1.49157939      -0.05392998
H        2.11100922       0.65816975       0.02073999
H        2.94210878       3.49553859       0.33565987
H        5.23036771       3.81462838       0.30105989
H        8.52430700       0.98628958      -0.14454995
