15
Properties=species:S:1:pos:R:3 atomization_energy=-1517.77 smiles=C.C.N.C.N.C.C.H.H.H.H.H.H.H.H pbc="F F F"
C        0.98461959      -0.10136996       0.13535995
C        2.44987913       0.21722992      -0.09305997
N        2.84046899       1.41842944       0.69919969
C        3.88000841       1.03363960       1.37731951
N        4.33370809      -0.26428990       1.33663942
C        3.42581871      -1.31042952       1.81295933
C        3.38062871      -0.87142965       0.38302986
H        0.69975974      -1.01885962      -0.38985984
H        0.35266987       0.71522973      -0.22896991
H        0.75801969      -0.23924990       1.19804950
H        2.62977895       0.42395982      -1.15421956
H        4.47069822       1.70453927       2.02017918
H        3.93632850      -2.23253915       2.05451919
H        2.68217906      -0.97001964       2.52099894
H        3.85741845      -1.45041937      -0.39340985
