14
Properties=species:S:1:pos:R:3 atomization_energy=-1372.48 smiles=O.N.C.O.C.C.C.H.H.H.H.H.H.H pbc="F F F"
O        2.11816925      -0.01499000      -1.81453930
N        1.87107929       0.83826967      -0.71982973
C        0.68840976       0.66396971      -0.05074998
O       -0.21560991      -0.07458997      -0.42822983
C        3.05443883       1.43369939      -0.20763992
C        3.91371835       2.32382906      -1.06758958
C        3.13033881       2.91336875       0.06673998
H        1.27879954      -0.51820980      -1.86734920
H        0.63482974       1.24471956       0.88484964
H        3.58343869       0.77708968       0.47881982
H        3.58199864       2.52454899      -2.08034921
H        4.98855816       2.23966902      -0.96225963
H        3.67704854       3.23987883       0.94354965
H        2.27862922       3.53492851      -0.18473993
