17
Properties=species:S:1:pos:R:3 atomization_energy=-1788.78 smiles=C.C.C.C.C.C.C.H.H.H.H.H.H.H.H.H.H pbc="F F F"
C        0.42022983       1.43547947       0.76756967
C        1.38067943       0.47264982       0.01620999
C        0.41475985      -0.36582986      -0.84699964
C       -0.63343977       0.68594972      -1.22279954
C       -0.96633964       1.01663961       0.23503991
C       -1.25080945      -0.38058985       0.73702970
C       -0.42142982      -1.21139947       0.08648997
H        0.64608977       2.47395910       0.50043982
H        0.50708981       1.32965943       1.85427933
H        1.96781918      -0.13818994       0.71025975
H        2.07152922       1.04645961      -0.61152978
H        0.86077963      -0.90415967      -1.68368939
H       -0.21621991       1.53523939      -1.77563928
H       -1.48316944       0.27551990      -1.78289936
H       -1.77451931       1.73375936       0.38106985
H       -1.95108925      -0.64371975       1.51477935
H       -0.32182988      -2.27535901       0.23698991
