15
Properties=species:S:1:pos:R:3 atomization_energy=-1376.59 smiles=C.C.C.S.O.O.O.H.H.H.H.H.H.H.H pbc="F F F"
C        1.29247943      -0.37159985      -0.11361995
C        2.77251896      -0.10729996       0.10607996
C        3.14098870       1.32495951      -0.25638990
S        4.88194821       1.63121938       0.01328999
O        4.92104795       3.15659867      -0.51424981
O        5.16716781       1.64273931       1.42854944
O        5.66593789       0.87496967      -0.93619962
H        1.04984962      -1.40726946       0.14404994
H        1.01567961      -0.20808992      -1.16006949
H        0.67984974       0.28632990       0.51103981
H        3.35916869      -0.80898965      -0.49820981
H        3.02479874      -0.30641988       1.15408949
H        2.58687910       2.03974924       0.36030986
H        2.93565893       1.52422941      -1.31302954
H        5.61488775       3.21665881      -1.20614946
