19
Properties=species:S:1:pos:R:3 atomization_energy=-1786.07 smiles=C.C.C.N.C.C.N.H.H.H.H.H.H.H.H.H.H.H.H pbc="F F F"
C        0.91868966      -0.12459995       0.19159992
C        2.42317895       0.02466999      -0.02743999
C        2.82930888      -0.02492999      -1.51682942
N        2.35598919       1.14619959      -2.25741901
C        3.09260872       1.12664960       0.83770968
C        4.13232831       0.05718998       1.19421950
N        3.16134881      -0.98057964       0.79584970
H        0.66722976      -0.19154992       1.25679954
H        0.53546976      -1.02813960      -0.29629988
H        0.37384986       0.73466971      -0.21418992
H        2.43317909      -0.93279964      -1.98741927
H        3.92003849      -0.06424998      -1.61862931
H        1.33693944       1.13578954      -2.29551901
H        2.66951885       1.07726963      -3.22558881
H        2.49892904       1.46330946       1.69624931
H        3.48019862       2.00433921       0.31362987
H        5.03401817       0.08165997       0.57165981
H        4.43177814       0.02319999       2.24550923
H        3.56380858      -1.76190931       0.28201989
