16
Properties=species:S:1:pos:R:3 atomization_energy=-1545.47 smiles=C.C.C.C.O.C.H.H.H.H.H.H.H.H.H.H pbc="F F F"
C        2.35852916      -0.50022981      -1.46246945
C        2.46198901       0.01999999      -0.03785998
C        3.23324883       1.33019942      -0.00275000
C        2.51614889       2.59081900      -0.50429979
O        2.82539900       3.29789862       0.72147972
C        3.25103869       2.06274923       1.34559945
H        1.81971928      -1.45210948      -1.48158947
H        3.35161868      -0.65966973      -1.89427926
H        1.82418933       0.20795993      -2.10314923
H        2.97513893      -0.72657972       0.58007978
H        1.45523940       0.14656994       0.37818986
H        4.24254837       1.22556951      -0.42195984
H        1.43414943       2.51147899      -0.64837974
H        2.97174886       3.06928877      -1.37556946
H        4.23658831       2.16000905       1.80882930
H        2.52304888       1.72907937       2.09142920
