14
Properties=species:S:1:pos:R:3 atomization_energy=-1298.78 smiles=C.S.O.O.C.C.N.H.H.H.H.H.H.H pbc="F F F"
C        3.43304876      -0.74655968      -1.55521935
S        2.99753889      -0.07980997       0.03177999
O        1.55517936      -0.17220993       0.15323994
O        3.85862838      -0.70527974       1.01894957
C        3.41789854       1.59346937      -0.14510995
C        4.69079820       1.97724918      -0.00547000
N        5.17756790       3.25320874      -0.13966994
H        4.50708843      -0.63138977      -1.71291932
H        2.86791884      -0.22400991      -2.32956910
H        3.17179885      -1.80717930      -1.55930939
H        2.61805892       2.28112907      -0.37727986
H        5.47473792       1.25650948       0.23232990
H        4.47815814       3.98902838      -0.05977998
H        6.00171762       3.44252859       0.43002984
