15
Properties=species:S:1:pos:R:3 atomization_energy=-1573.2 smiles=C.C.C.C.C.C.S.H.H.H.H.H.H.H.H pbc="F F F"
C        0.85564968      -0.00227000      -0.00323000
C        2.34904907       0.00844999      -0.00418000
C        3.21664871       1.09068962      -0.00123000
C        2.80419889       2.52597895       0.00383000
C        4.58257837       0.65335974      -0.00392000
C        4.70213796      -0.71700974      -0.00877000
S        3.18258879      -1.48963947      -0.01024999
H        0.44648981       1.01239962       0.00895000
H        0.47354982      -0.52443980       0.88022965
H        0.47278983      -0.50376980      -0.89821966
H        3.67457847       3.19021878       0.00881999
H        2.20513926       2.74861889       0.89284968
H        2.20953916       2.75592893      -0.88627966
H        5.43902800       1.31725949      -0.00242000
H        5.61192790      -1.30130951      -0.01158000
