12
Properties=species:S:1:pos:R:3 atomization_energy=-1385.06 smiles=C.C.C.C.C.C.N.H.H.H.H.H pbc="F F F"
C        0.95059960      -0.01745999      -0.00463000
C        2.15062915       0.00675000      -0.00144000
C        3.56997858       0.03574999       0.00244000
C        4.39792841       1.13726959       0.00453000
C        5.73445794       0.66456975       0.00838000
C        5.68246761      -0.71180969       0.00844000
N        4.36192831      -1.08280957       0.00477000
H       -0.11403995      -0.03226999      -0.00737000
H        4.07735845       2.17109926       0.00348000
H        6.63536733       1.26457954       0.01084000
H        6.46677724      -1.45677938       0.01082000
H        4.01793848      -2.03354921       0.00394000
