13
Properties=species:S:1:pos:R:3 atomization_energy=-1371.53 smiles=C.C.C.O.S.C.C.H.H.H.H.H.H pbc="F F F"
C        0.91608964      -0.02318999      -0.00618000
C        2.40587912       0.05050998      -0.00280000
C        3.14509867       1.21679948      -0.00396000
O        2.69185900       2.46555899      -0.00771000
S        4.82548808       0.92524964       0.00031000
C        4.59691835      -0.76595967       0.00335000
C        3.26236862      -1.10151955       0.00124000
H        0.45790982       0.97035959       0.00512000
H        0.56202977      -0.56822980       0.87523967
H        0.56520978      -0.54736977      -0.90080966
H        3.49333852       3.01679883      -0.00716000
H        5.44786767      -1.43368942       0.00649000
H        2.90944878      -2.12530922       0.00260000
