15
Properties=species:S:1:pos:R:3 atomization_energy=-1541.07 smiles=C.C.C.N.C.N.C.H.H.H.H.H.H.H.H pbc="F F F"
C        1.05645956      -0.03056999       0.12782995
C        2.39394915      -0.00960000       0.02266999
C        3.23401869       1.23943953      -0.07890997
N        4.39319821       0.74328972      -0.77281967
C        4.51288801      -0.60619979      -0.67203977
N        5.59417791      -1.25107956      -0.94165962
C        3.24630874      -1.24551945      -0.15217994
H        0.50745979      -0.96748964       0.14142995
H        0.47936981       0.88631966       0.19557992
H        3.51093862       1.60035939       0.91649961
H        2.74366891       2.03380923      -0.64750976
H        5.25223777       1.27665952      -0.77302967
H        5.45577775      -2.25456918      -0.78430970
H        2.84406900      -1.94619919      -0.88799968
H        3.45138870      -1.73870934       0.80191971
