13
Properties=species:S:1:pos:R:3 atomization_energy=-1315.35 smiles=N.C.C.C.N.C.S.H.H.H.H.H.H pbc="F F F"
N        2.10790921      -0.51186979      -1.31572948
C        2.47562903      -0.09307996       0.03209999
C        2.99529894       1.30130951       0.01891999
C        2.29837919       2.49024910      -0.08422997
N        3.06043876       3.64351851      -0.04782998
C        4.32836825       3.31569857       0.06626997
S        4.67421801       1.63843934       0.14727993
H        1.82445933      -1.49005948      -1.29503946
H        2.93438895      -0.46808981      -1.91194926
H        3.21441861      -0.79045971       0.44194984
H        1.59131937      -0.14845995       0.67622973
H        1.22262947       2.57050911      -0.18937992
H        5.11395822       4.05849846       0.10851995
