13
Properties=species:S:1:pos:R:3 atomization_energy=-1369.09 smiles=O.C.C.C.C.C.S.H.H.H.H.H.H pbc="F F F"
O        1.73127932      -0.33206986      -1.16487955
C        2.53710903      -0.14685995      -0.00801999
C        2.98065893       1.27773950       0.00541000
C        2.23497919       2.41679900      -0.23472990
C        3.00376869       3.60938869      -0.11521996
C        4.31281809       3.34394857       0.21859991
S        4.60571816       1.66911928       0.38936984
H        1.51658946      -1.27823950      -1.20282954
H        3.37871856      -0.84463965      -0.05634998
H        1.93612928      -0.36763986       0.87904968
H        1.18339953       2.38671910      -0.49643979
H        2.61746897       4.60872796      -0.26959989
H        5.11442806       4.05428831       0.37057986
