10
Properties=species:S:1:pos:R:3 atomization_energy=-1179.66 smiles=N.C.C.C.C.C.S.H.H.H pbc="F F F"
N        0.83089970       0.25859989      -0.00993000
C        1.98709919       0.15586994      -0.00495000
C        3.41168867       0.05158998       0.00119000
C        4.28536848       1.12053953       0.00426000
C        5.64989769       0.70329970       0.01035999
C        5.76841769      -0.66886973       0.01170999
S        4.24270835      -1.44379946       0.00565000
H        3.96592847       2.15685920       0.00226000
H        6.50008750       1.37536949       0.01359000
H        6.67688743      -1.25644955       0.01595999
