14
Properties=species:S:1:pos:R:3 atomization_energy=-1444.52 smiles=C.C.C.N.S.C.C.H.H.H.H.H.H.H pbc="F F F"
C        0.92667966      -0.04285998       0.01068999
C        2.41693905       0.04443998       0.01253000
C        3.17126871       1.20416955       0.05251998
N        2.73126885       2.47857903       0.09195997
S        4.85264801       0.88135964       0.04902998
C        4.59947800      -0.80448971      -0.00509000
C        3.26104867      -1.11815954      -0.01992999
H        0.44930983       0.94132964       0.02718999
H        0.58012974      -0.59808974       0.88907966
H        0.58075976      -0.56768975      -0.88658965
H        3.39744860       3.22624866      -0.07675997
H        1.77693929       2.71081892      -0.15709994
H        5.44079785      -1.48278943      -0.02096999
H        2.89532883      -2.13702924      -0.04972998
