13
Properties=species:S:1:pos:R:3 atomization_energy=-1325.75 smiles=C.C.C.N.N.C.S.H.H.H.H.H.H pbc="F F F"
C        0.83332965      -0.02872999       0.00368000
C        2.31867899       0.00924000       0.00372000
C        3.19789873       1.06986964       0.04870998
N        2.86753883       2.36412914       0.09848996
N        4.53019844       0.76652969       0.03593999
C        4.66930815      -0.53951981      -0.00667000
S        3.21984878      -1.45615940      -0.04522999
H        0.40520984       0.97846965       0.01544999
H        0.46007981      -0.55846976       0.88406962
H        0.45969983      -0.53602981      -0.89213968
H        3.61098847       3.03929870      -0.04369998
H        1.94463928       2.69999895      -0.14183994
H        5.63997755      -1.01666957      -0.01791999
