20
Properties=species:S:1:pos:R:3 atomization_energy=-1907.37 smiles=C.C.C.C.C.N.C.H.H.H.H.H.H.H.H.H.H.H.H.H pbc="F F F"
C        2.38063918      -1.31177949      -0.54939977
C        1.93152928       0.00903999       0.05919998
C        3.09800887       0.91979967       0.41360985
C        3.85637860       0.51876979       1.65490938
C        3.85693852       1.59587938      -0.71902971
N        2.89214895       2.34175897       0.07477997
C        3.48870874       3.32474868       0.96925962
H        1.50993939      -1.91682922      -0.82014970
H        2.98666871      -1.89167924       0.15206994
H        2.97604884      -1.14869957      -1.45287947
H        1.33789943      -0.18615992       0.96045963
H        1.25932954       0.50620981      -0.65247974
H        4.79988807       1.06103956       1.77283929
H        4.11289830      -0.54539976       1.62866932
H        3.24495877       0.69467975       2.54672891
H        3.56011849       1.38891943      -1.74054934
H        4.91287797       1.80316926      -0.59633976
H        2.96944886       3.32486880       1.93346920
H        3.36214872       4.32150838       0.53362977
H        4.56087838       3.19338882       1.15271958
