16
Properties=species:S:1:pos:R:3 atomization_energy=-1606.3 smiles=C.C.C.N.C.C.C.H.H.H.H.H.H.H.H.H pbc="F F F"
C        1.27318946      -0.09625996       0.08381996
C        2.74351903      -0.01057999      -0.13995995
C        3.33846869      -0.42290983      -1.46595944
N        3.25255873       0.98526960      -1.07861961
C        4.53413834       1.57052943      -0.66724976
C        5.14918821       2.26677899      -1.77272928
C        5.65611766       2.84063881      -2.68387902
H        0.96415963       0.62951974       0.84295969
H        1.00586960      -1.09578961       0.44118981
H        0.70065974       0.10192996      -0.82887966
H        3.30775872      -0.20976991       0.76345970
H        2.67451905      -0.72569971      -2.26698918
H        4.30970835      -0.90216966      -1.47538944
H        5.23274770       0.82663966      -0.26159990
H        4.33994824       2.28160900       0.14486994
H        6.10000771       3.35466861      -3.50460864
