20
Properties=species:S:1:pos:R:3 atomization_energy=-1917.42 smiles=C.C.C.C.C.C.N.H.H.H.H.H.H.H.H.H.H.H.H.H pbc="F F F"
C        2.84901898      -1.01906962      -0.35519986
C        2.33891898       0.28145991       0.24694990
C        3.38963870       1.35128952       0.20370992
C        3.47418859       2.28854912      -0.97197962
C        3.06285887       2.82585901       0.37811984
C        1.63183936       3.27195872       0.55025978
N        4.04290842       3.64132853       1.11532951
H        2.07312913      -1.78990925      -0.31200987
H        3.72655846      -1.38692942       0.18739993
H        3.13712879      -0.87978964      -1.40278945
H        2.05205922       0.10765995       1.28925943
H        1.43549940       0.58243978      -0.29305989
H        4.32270846       0.99916958       0.63412977
H        2.72232900       2.21598925      -1.75057926
H        4.45759819       2.53999898      -1.35435951
H        0.95091961       2.78596897      -0.15525994
H        1.54782945       4.35208840       0.38731984
H        1.28595944       3.05146889       1.56558941
H        4.99702792       3.34516859       0.91541964
H        3.91735849       3.52092867       2.11988914
