18
Properties=species:S:1:pos:R:3 atomization_energy=-1713.92 smiles=O.C.C.C.C.C.N.H.H.H.H.H.H.H.H.H.H.H pbc="F F F"
O        2.36143904       0.91865963      -1.66576933
C        2.31932899       1.73965937      -0.50464980
C        3.14918871       1.10424952       0.60278979
C        4.63251826       1.17249957       0.26601988
C        5.34034780       2.54450890       0.38640983
C        6.48356737       1.73898931       1.02355960
N        5.47879793       0.72148969       1.40843939
H        1.75748935       1.31534947      -2.31708905
H        1.27485952       1.81896923      -0.18609993
H        2.68565896       2.73690896      -0.76682971
H        2.85187890       0.05597998       0.72621970
H        2.94418874       1.62461941       1.54628935
H        4.87976807       0.64539977      -0.66652973
H        4.86043798       3.25425869       1.07103957
H        5.57547764       3.05103892      -0.55285980
H        7.23000713       1.37366941       0.30843989
H        6.99460730       2.21965915       1.86158924
H        5.79992780      -0.24274991       1.33740953
