12
Properties=species:S:1:pos:R:3 atomization_energy=-1275.43 smiles=O.C.C.C.N.C.O.H.H.H.H.H pbc="F F F"
O        0.80980967      -0.07626997      -0.15460994
C        1.84975932       0.21573991       0.44071982
C        2.92057886       1.16460956      -0.08786997
C        2.57218888       2.65652884      -0.25132990
N        3.71706853       2.94488896       0.61928973
C        3.80990852       1.65931937       1.05640960
O        4.34028838       1.20037953       2.03736925
H        2.04874914      -0.23570991       1.42852938
H        3.49745858       0.73674974      -0.91512964
H        1.62263936       2.98631872       0.18116993
H        2.69138890       3.05840876      -1.26025951
H        3.83619841       3.68743854       1.29667948
