11
Properties=species:S:1:pos:R:3 atomization_energy=-1245.03 smiles=O.C.C.C.C.C.S.H.H.H.H pbc="F F F"
O        2.54482911      -1.20473956       0.04804998
C        2.10103911      -0.06025998      -0.00976999
C        2.86978887       1.16551959       0.00241000
C        2.39943912       2.46280908      -0.06118997
C        3.45469853       3.42151873      -0.02459999
C        4.69128822       2.82251890       0.06549997
S        4.57579823       1.11660959       0.10539996
H        1.00914959       0.08751997      -0.07888997
H        1.34914950       2.72021901      -0.13082995
H        3.31480860       4.49526822      -0.06238997
H        5.65992786       3.30180875       0.11006995
