14
Properties=species:S:1:pos:R:3 atomization_energy=-1456.81 smiles=O.C.C.C.C.C.N.H.H.H.H.H.H.H pbc="F F F"
O        3.23897877      -1.44394947       0.63867974
C        2.88619898      -0.48965981      -0.34782987
C        2.98360894       0.85819967       0.28460988
C        3.76008849       1.85743927      -0.16785993
C        3.86751852       3.20699881       0.48782981
C        3.47067867       4.27161845      -0.44632984
N        3.16581885       5.11769777      -1.18124954
H        3.19096871      -2.31625913       0.21311991
H        1.85941932      -0.67957974      -0.67447975
H        3.56066857      -0.59699980      -1.20299948
H        2.37473917       1.00014963       1.17508950
H        4.37625820       1.69879937      -1.05184959
H        4.90497798       3.36149871       0.80491968
H        3.24616869       3.25728868       1.38924948
