15
Properties=species:S:1:pos:R:3 atomization_energy=-1537.08 smiles=C.C.C.N.C.C.N.H.H.H.H.H.H.H.H pbc="F F F"
C        0.92889961       0.08855997       0.02289999
C        2.24348906       0.14750994      -0.21871991
C        3.02420879       1.40089949      -0.10497996
N        4.32512832       1.35838949      -0.26816990
C        4.77219824       2.76603883      -0.08724997
C        3.50913874       3.62589847      -0.15166995
N        2.49038914       2.64392893       0.13241994
H        0.40239985      -0.85661964      -0.06276998
H        0.35156986       0.95272965       0.32967987
H        2.80856902      -0.73600971      -0.49617980
H        5.26565775       2.85978898       0.88699963
H        5.48567799       3.04770890      -0.86764967
H        3.36843858       4.03729834      -1.15691951
H        3.51945859       4.44088831       0.57673980
H        1.56697937       2.81945888      -0.24159991
