13
Properties=species:S:1:pos:R:3 atomization_energy=-1227.02 smiles=C.C.C.O.S.O.O.H.H.H.H.H.H pbc="F F F"
C        0.90609965       0.04468998      -0.00607000
C        2.41863900       0.00844999      -0.00599000
C        3.12826868       0.97210964       0.94395962
O        4.14942830       0.02052999       1.32107954
S        3.21778875      -1.26108955       0.91198963
O        2.45878894      -1.68641937       2.06505920
O        3.97515849      -2.15381911       0.06476997
H        0.50100980      -0.80058967      -0.57145977
H        0.54448978       0.96534962      -0.47526980
H        0.49493981       0.00167000       1.00766961
H        2.81396891       0.05856998      -1.02815960
H        2.54932893       1.29465944       1.81771931
H        3.55647861       1.85814921       0.46551982
