15
Properties=species:S:1:pos:R:3 atomization_energy=-1547.55 smiles=C.N.N.C.C.C.C.H.H.H.H.H.H.H.H pbc="F F F"
C        0.99380962       0.06972997      -0.00471000
N        2.43505896      -0.02132999      -0.00495000
N        3.16211867       1.11261960      -0.00749000
C        4.42472801       0.68424976      -0.00772000
C        4.51118830      -0.71743971      -0.00538000
C        3.20323882      -1.15908956      -0.00408000
C        2.66547903      -2.54119907      -0.00198000
H        0.69214975       1.12033955       0.00013000
H        0.61651976      -0.42665983       0.89295963
H        0.61710978      -0.41870985      -0.90718966
H        5.22664784       1.41047949      -0.00962999
H        5.40450807      -1.32620943      -0.00549000
H        1.57240942      -2.57048892       0.01758000
H        3.02955871      -3.08638876       0.87466965
H        2.99796886      -3.07576889      -0.89800966
