14
Properties=species:S:1:pos:R:3 atomization_energy=-1429.87 smiles=C.C.C.C.C.O.H.H.H.H.H.H.H.H pbc="F F F"
C        1.03093960       0.00367000      -0.12578994
C        2.53484890      -0.02896999      -0.02362999
C        3.11738867      -1.41500947      -0.05032998
C        3.22324869       1.12384961       0.08061997
C        4.69261801       1.25789945       0.18295992
O        5.21974810       2.36061896       0.28060989
H        0.63374976       1.02419958      -0.10822995
H        0.58221974      -0.54159977       0.71099971
H        0.70462974      -0.46321982      -1.06112964
H        2.69690890      -2.01409926       0.76403968
H        4.20266842      -1.43976947       0.05882998
H        2.87240882      -1.90560931      -0.99915961
H        2.70800896       2.08069919       0.09379997
H        5.28661790       0.33454986       0.16592993
