15
Properties=species:S:1:pos:R:3 atomization_energy=-1522.37 smiles=C.C.C.N.N.C.C.H.H.H.H.H.H.H.H pbc="F F F"
C        0.93029961       0.07044997      -0.15380994
C        2.26613908       0.13149995      -0.18711993
C        3.03606886       1.38340940      -0.03850998
N        4.33417843       1.40910946      -0.02055999
N        4.68438797       2.70388889       0.17756994
C        3.59080853       3.61440857      -0.13539994
C        2.38407896       2.73053886       0.11107996
H        0.42803982      -0.88607963      -0.26409989
H        0.30166987       0.94230963      -0.01242000
H        2.86363880      -0.76537968      -0.31898989
H        5.55832769       2.94758891      -0.29024990
H        3.63824857       3.91746850      -1.18738952
H        3.59573858       4.50749821       0.49483979
H        1.59539932       2.89510880      -0.62606974
H        1.99697922       2.83345897       1.12934955
