16
Properties=species:S:1:pos:R:3 atomization_energy=-1526.4 smiles=O.C.C.N.C.C.O.H.H.H.H.H.H.H.H.H pbc="F F F"
O        2.88677884      -0.82110969      -1.18299958
C        2.33440906      -0.17975993      -0.03262999
C        2.77284900       1.28940944      -0.00242000
N        4.24050853       1.37215946       0.11386995
C        4.72046831       2.74693887      -0.07213997
C        4.34957821       3.59960858       1.12299950
O        3.75165860       4.66824836       1.03731961
H        2.61285888      -1.75350933      -1.13924951
H        2.67472899      -0.71055971       0.86311963
H        1.24332947      -0.24633991      -0.09105996
H        2.29218900       1.79102934       0.84361966
H        2.44859905       1.77003929      -0.93297962
H        4.61836803       0.78457970      -0.63659978
H        4.33296825       3.19678873      -0.99150962
H        5.81339776       2.73967880      -0.13189995
H        4.69140833       3.22030878       2.10206913
