13
Properties=species:S:1:pos:R:3 atomization_energy=-1371.45 smiles=C.C.C.C.C.O.S.H.H.H.H.H.H pbc="F F F"
C        0.86617965       0.09857997      -0.00828000
C        2.35514918       0.05605998       0.00000000
C        3.24586867       1.10949953       0.00402000
C        4.60014819       0.66563976       0.01166999
C        4.69925836      -0.70507971       0.01312999
O        5.80576776      -1.43849949       0.01965999
S        3.16733865      -1.45114949       0.00519000
H        0.50441980       1.13229955      -0.00092000
H        0.45774981      -0.40486986       0.87418965
H        0.46869982      -0.38870983      -0.90470962
H        2.94525888       2.15036924       0.00164000
H        5.46409761       1.31785954       0.01582999
H        5.49058785      -2.35879915       0.01838999
