14
Properties=species:S:1:pos:R:3 atomization_energy=-1419.69 smiles=O.N.C.C.C.C.C.H.H.H.H.H.H.H pbc="F F F"
O        1.45541944      -0.30277988      -0.12137995
N        2.79497896       0.10418996      -0.08271996
C        2.92300881       1.39943950      -0.02307999
C        1.78194933       2.37446917       0.04662998
C        1.85762928       3.69700845      -0.15113994
C        4.29214812       1.99447924       0.04615998
C        5.34142778       1.37685951      -0.51109980
H        1.53832943      -1.27346955      -0.16344994
H        0.81130965       1.93131921       0.24703990
H        2.77803895       4.21355829      -0.39574985
H        0.95838963       4.30396832      -0.09274996
H        4.41926806       2.93025879       0.57568979
H        5.23384786       0.43210984      -1.03665957
H        6.33564775       1.80514930      -0.44802982
