16
Properties=species:S:1:pos:R:3 atomization_energy=-1584.21 smiles=O.N.C.C.C.C.C.H.H.H.H.H.H.H.H.H pbc="F F F"
O        1.24614952       0.07405997       0.73423973
N        2.37498897      -0.00017000      -0.08877996
C        2.96170886       1.15203955      -0.17011993
C        2.53631898       2.42748902       0.50676979
C        3.28741880       3.45968863      -0.32310986
C        4.59140794       2.76873903      -0.70548974
C        4.19826828       1.32834946      -1.01096960
H        0.87693968      -0.82612970       0.66228975
H        2.88892895       2.41176903       1.54339940
H        1.45669939       2.58343907       0.47666980
H        2.71468892       3.70037858      -1.22723956
H        3.45613858       4.38924821       0.22807991
H        5.07792784       3.24928877      -1.55947933
H        5.29000772       2.79611899       0.13926995
H        3.93610846       1.19447952      -2.06467919
H        4.97746820       0.61708978      -0.72630972
