16
Properties=species:S:1:pos:R:3 atomization_energy=-1428.63 smiles=C.N.C.S.C.O.O.H.H.H.H.H.H.H.H.H pbc="F F F"
C        0.93757962      -0.03356998      -0.04634998
N        2.39675910       0.11474996      -0.16954994
C        3.00008869      -0.76495968      -1.18365956
S        3.03907892       1.67274932      -0.00621000
C        2.49738906       2.47311909      -1.50413943
O        2.37271900       2.32046902       1.10314961
O        4.48174831       1.57267941      -0.05910998
H        0.55279981       0.52770979       0.80941969
H        0.68515973      -1.08523951       0.12509996
H        0.43348983       0.30008987      -0.95772959
H        2.71222894      -1.80380929      -0.99140963
H        4.09192831      -0.72647973      -1.14295953
H        2.66270893      -0.49149981      -2.18730902
H        2.91390874       1.94875922      -2.36549905
H        2.87167883       3.49961854      -1.48570941
H        1.40682939       2.48329914      -1.53499942
