14
Properties=species:S:1:pos:R:3 atomization_energy=-1423.21 smiles=O.C.C.N.C.C.C.H.H.H.H.H.H.H pbc="F F F"
O        2.83589877       2.36407918      -2.23824915
C        2.25030907       2.09822915      -1.19176949
C        2.88800895       1.42346938       0.01084000
N        4.33672849       1.24898951      -0.15106994
C        5.06598803       2.49775898       0.06341997
C        6.50724765       2.24960910      -0.07848997
C        7.68406713       2.04734920      -0.19538992
H        1.17450952       2.31808903      -1.08127956
H        2.42166900       0.43763983       0.10748996
H        2.64880902       1.99579919       0.91301965
H        4.51814810       0.95017965      -1.11331957
H        4.86871798       2.88012890       1.07146955
H        4.75910831       3.26812884      -0.65210976
H        8.72844703       1.86032923      -0.29974988
