9
Properties=species:S:1:pos:R:3 atomization_energy=-1005.85 smiles=O.N.C.C.C.C.N.H.H pbc="F F F"
O        0.93617962       0.08840997      -0.00000000
N        2.33612921      -0.02968999      -0.00000000
C        2.94700880       1.11637959      -0.00000000
C        2.20020921       2.34650910      -0.00000000
C        1.58825935       3.38135870      -0.00000000
C        4.38475823       1.03154961      -0.00000000
N        5.54748805       0.98827959      -0.00000000
H        0.64136972      -0.84248966      -0.00000000
H        1.03846960       4.29410823       0.00000000
