15
Properties=species:S:1:pos:R:3 atomization_energy=-1511.77 smiles=C.C.C.C.C.N.N.H.H.H.H.H.H.H.H pbc="F F F"
C        1.68881929      -0.72773968      -0.94811962
C        2.10047919       0.14768994      -0.02023999
C        3.13658880       1.22201946      -0.17733994
C        3.54563871       1.61601932      -1.59226940
C        3.73703853       3.08208878      -1.38885950
N        3.25572877       3.56073872      -0.28972987
N        2.66333900       2.51172905       0.33610987
H        0.92760963      -1.46474938      -0.70735971
H        2.08463922      -0.74223971      -1.95760923
H        1.65355940       0.07503997       0.97065961
H        4.03071830       0.93058966       0.38929985
H        2.77689892       1.47743938      -2.35800910
H        4.48338846       1.15203955      -1.90804923
H        4.23846817       3.69475866      -2.15094910
H        2.74061899       2.57981887       1.35111945
