14
Properties=species:S:1:pos:R:3 atomization_energy=-1555.4 smiles=C.C.C.C.C.N.C.H.H.H.H.H.H.H pbc="F F F"
C        0.98723961      -0.02510999       0.04960998
C        2.48018890      -0.01145999      -0.02658999
C        3.20465869       1.17962957      -0.09112996
C        4.59442835       1.13768960      -0.15777994
C        5.21515819      -0.10042996      -0.15683993
N        4.54984798      -1.27306948      -0.09420996
C        3.20113867      -1.20146948      -0.03023999
H        0.57472979       0.98871959       0.01561999
H        0.66058973      -0.48973980       0.98549959
H        0.56998975      -0.58408977      -0.79421970
H        2.69636891       2.14028911      -0.08997996
H        5.17950782       2.04893914      -0.20884991
H        6.29678773      -0.18425993      -0.20751993
H        2.69828890      -2.16372917       0.01985999
