10
Properties=species:S:1:pos:R:3 atomization_energy=-1116.01 smiles=O.C.C.C.O.N.C.H.H.H pbc="F F F"
O        0.97511963      -0.06647997       0.06825998
C        2.19227919      -0.00910999       0.02236999
C        2.94075880       1.23316947      -0.04837998
C        4.26327839       1.10063954      -0.11071996
O        4.99692799      -0.05692998      -0.11962995
N        4.29711854      -1.27882944      -0.02029999
C        3.00583882      -1.25341956       0.04286998
H        2.41695898       2.17705908      -0.04940998
H        4.93440788       1.94882924      -0.16940994
H        2.42754907      -2.18677913       0.11977995
