13
Properties=species:S:1:pos:R:3 atomization_energy=-1228.25 smiles=C.S.O.O.C.C.O.H.H.H.H.H.H pbc="F F F"
C        0.91088966      -0.01301000      -0.01793999
S        2.67124883      -0.22433992       0.14398995
O        2.95077887      -0.54930976       1.52927944
O        3.12004874      -1.09861951      -0.92264962
C        3.33615860       1.38557945      -0.16776993
C        2.97071885       1.79222931      -1.55144939
O        2.22845921       2.74234897      -1.78624931
H        0.67869973       0.32872987      -1.02695957
H        0.57351980       0.70890971       0.72662974
H        0.43972983      -0.98188962       0.15822995
H        4.42341841       1.33704946      -0.07448997
H        2.93136880       2.08180920       0.56921976
H        3.39887857       1.19027959      -2.37189918
