15
Properties=species:S:1:pos:R:3 atomization_energy=-1519.39 smiles=C.C.N.N.C.C.C.H.H.H.H.H.H.H.H pbc="F F F"
C        0.97585959       0.07951997       0.11036996
C        2.47822905       0.02768999       0.01095000
N        3.11960867       1.15255960       0.03192999
N        4.50038802       1.18201953      -0.14993995
C        5.17441780       0.08111997      -0.09807996
C        4.59543818      -1.26940954       0.13944994
C        3.12725885      -1.30593953      -0.19221993
H        0.55769977      -0.92681965       0.19476992
H        0.57361979       0.55527979      -0.78804969
H        0.68618975       0.66432972       0.98668959
H        6.27142743       0.14330994      -0.18775993
H        5.14463817      -2.00047918      -0.46609983
H        4.77320807      -1.52460943       1.19028956
H        2.62379895      -2.06148922       0.42114982
H        2.97786891      -1.58588933      -1.24339949
