12
Properties=species:S:1:pos:R:3 atomization_energy=-1251.2 smiles=O.C.C.N.C.C.O.H.H.H.H.H pbc="F F F"
O        1.39652949       0.39681986      -1.08803951
C        1.89140924       0.37818986       0.03362999
C        3.07305886       1.20542956       0.37286987
N        4.00220840       1.46974946      -0.74257973
C        3.21827877       2.58752911      -0.20388992
C        3.99261855       3.59443857       0.54643980
O        3.56554866       4.04889852       1.60011943
H        1.48569944      -0.25153990       0.84280968
H        3.53288867       1.00514958       1.33398944
H        3.57427856       1.13409955      -1.61495941
H        2.42212900       2.97356893      -0.82978970
H        4.94976829       3.92102839       0.10668996
