15
Properties=species:S:1:pos:R:3 atomization_energy=-1479.55 smiles=O.C.C.N.C.C.N.H.H.H.H.H.H.H.H pbc="F F F"
O        1.62328937      -0.26781989       0.94441963
C        2.49508907      -0.04166998      -0.15579993
C        3.04649872       1.37327943      -0.11917996
N        3.97415850       1.77723931      -0.94897963
C        4.17811836       3.20939873      -0.57994977
C        2.99479882       3.59848849       0.31457986
N        2.55779893       2.30029918       0.77039969
H        2.16977907      -0.14002994       1.74100934
H        1.93354919      -0.17997992      -1.08405961
H        3.31772858      -0.76219968      -0.12395996
H        5.12828811       3.30319859      -0.04207998
H        4.22080827       3.83479847      -1.47719941
H        2.20496918       4.08045835      -0.27165989
H        3.29063880       4.25420809       1.13773956
H        1.58011940       2.18499919       1.02260958
