11
Properties=species:S:1:pos:R:3 atomization_energy=-1236.15 smiles=O.C.C.N.C.C.N.H.H.H.H pbc="F F F"
O        2.63681899      -1.07260958       0.07001998
C        2.13365911       0.04774998       0.00962999
C        2.88887874       1.27187949      -0.00596000
N        2.35537905       2.47671910      -0.07060998
C        3.41608857       3.34765860      -0.06148998
C        4.60730834       2.66546894       0.00946000
N        4.25788809       1.34476953       0.04424998
H        1.03829959       0.17101994      -0.03717999
H        3.26525882       4.41898848      -0.10647996
H        5.63676789       2.99345894       0.03722999
H        4.87536791       0.54453981       0.09735996
