14
Properties=species:S:1:pos:R:3 atomization_energy=-1457.91 smiles=O.C.C.C.N.C.C.H.H.H.H.H.H.H pbc="F F F"
O        1.19857953      -0.00184000       0.26980989
C        2.50855901       0.19121992      -0.26522989
C        2.61309909      -0.58178977      -1.58145940
C        3.99357842      -0.62096975      -2.07336922
N        5.08631786      -0.66021975      -2.46018913
C        2.69351883       1.67372938      -0.43003983
C        3.66230861       2.38539916       0.16117993
H        1.13751952       0.54862978       1.07122958
H        3.21874861      -0.21549991       0.46553981
H        1.94874925      -0.14368994      -2.33785919
H        2.24982914      -1.60545939      -1.42968947
H        1.98253918       2.18895902      -1.07400952
H        4.40210802       1.92514921       0.80994971
H        3.74297841       3.45648856      -0.00209000
