12
Properties=species:S:1:pos:R:3 atomization_energy=-1260.78 smiles=C.N.C.C.S.C.O.H.H.H.H.H pbc="F F F"
C        1.00008957       0.04356998      -0.00803000
N        2.43897892      -0.03239999       0.00073000
C        3.25837875       1.07370962       0.00351000
C        4.56249835       0.78193968       0.00943999
S        4.83376808      -0.93498963       0.01118000
C        3.08939882      -1.25757949       0.00285000
O        2.59899908      -2.37356911      -0.00064000
H        0.65907972       1.08264959       0.00653000
H        0.61091978      -0.48344982       0.86843966
H        0.62414976      -0.45476981      -0.90686964
H        2.83554878       2.07046918       0.00105000
H        5.36859780       1.50232946       0.01258000
