18
Properties=species:S:1:pos:R:3 atomization_energy=-1789.96 smiles=C.C.C.N.C.C.C.H.H.H.H.H.H.H.H.H.H.H pbc="F F F"
C        0.97247962       0.05259998       0.00498000
C        2.49289908      -0.01265000       0.02346999
C        3.10629870       1.09101954       0.88535966
N        4.47297829       0.62583974       1.17482948
C        4.31957855      -0.81767969       1.42806938
C        3.10671884      -1.23753947       0.64814974
C        2.65136891      -2.49533912       0.57219979
H        0.55347978      -0.71340973      -0.65591977
H        0.63414977       1.02782962      -0.36131984
H        0.54981978      -0.09723996       1.00471960
H        2.87366897       0.08063997      -1.00239961
H        2.55904898       1.23061954       1.82662925
H        3.12446883       2.05337916       0.36315984
H        5.03214788       0.72839972       0.32769986
H        5.21895780      -1.35433945       1.10968953
H        4.16358837      -0.98310964       2.49969891
H        1.76219936      -2.74792902       0.00443000
H        3.16302883      -3.30853867       1.07861961
