10
Properties=species:S:1:pos:R:3 atomization_energy=-1180.52 smiles=N.C.C.C.S.C.C.H.H.H pbc="F F F"
N        0.86678966       0.04134999      -0.02576999
C        2.02712914       0.03407999      -0.01546000
C        3.45907875       0.02362999      -0.00273000
C        4.21833845       1.17410957       0.00450000
S        5.89779751       0.83675965       0.01930999
C        5.61517793      -0.85140969       0.01609999
C        4.26968811      -1.15096954       0.00399000
H        3.87629838       2.20104922       0.00188000
H        6.44874767      -1.54119945       0.02322999
H        3.88909839      -2.16605920       0.00018000
