17
Properties=species:S:1:pos:R:3 atomization_energy=-1574.02 smiles=O.C.C.C.N.N.C.H.H.H.H.H.H.H.H.H.H pbc="F F F"
O        0.99882963       2.68841897      -1.66687934
C        2.39536902       2.41485908      -1.63853939
C        2.76159882       1.89416924      -0.25547989
C        4.23086821       1.49981939      -0.13860995
N        5.11508816       2.65502898      -0.32131988
N        6.43908742       2.37642903      -0.30127989
C        7.18687716       3.41038865      -0.50605980
H        0.79169966       3.00261882      -2.56367901
H        2.92883893       3.34093876      -1.87207928
H        2.61794890       1.66956932      -2.40844911
H        2.13635905       1.02202959      -0.02469999
H        2.50321893       2.64638890       0.50133981
H        4.46482849       0.73282971      -0.88613962
H        4.40683823       1.06116964       0.85027969
H        4.86754817       3.37136865       0.36757987
H        8.28168697       3.29577879      -0.50730981
H        6.79245716       4.42456803      -0.69115973
