17
Properties=species:S:1:pos:R:3 atomization_energy=-1665.06 smiles=C.C.C.C.C.N.N.H.H.H.H.H.H.H.H.H.H pbc="F F F"
C        1.06077954       0.07501997       0.01528000
C        2.58153901      -0.05079998      -0.01725000
C        3.04809875      -1.27284945      -0.79687971
C        3.35702867      -0.62160972      -2.10900912
C        3.60214855      -1.42992944      -3.33749873
N        3.41183855       0.67357975      -2.08482922
N        3.18566874       1.03024959      -0.79623967
H        0.75807968       0.99597961       0.52465980
H        0.61933975      -0.76902972       0.55534981
H        0.62925978       0.08943997      -0.99152962
H        2.96914884      -0.06198997       1.00660963
H        2.28789911      -2.04959924      -0.90742963
H        3.97219839      -1.69579928      -0.39255984
H        3.77114842      -0.77705972      -4.19776840
H        2.73419892      -2.06478921      -3.53275872
H        4.48157824      -2.06119916      -3.18508863
H        2.68918883       1.91948929      -0.72069970
