14
Properties=species:S:1:pos:R:3 atomization_energy=-1458.07 smiles=O.C.C.N.C.C.C.H.H.H.H.H.H.H pbc="F F F"
O        1.03974962       0.38621986      -0.78918966
C        1.98621918       0.31753987      -0.00601000
C        3.20598873       1.23751954      -0.03439999
N        3.79318854       1.31569946       1.33313946
C        3.48996863       2.66929907       1.84474928
C        3.00088884       3.43858869       0.67488972
C        2.84088887       2.63696888      -0.37795986
H        2.04221918      -0.51604978       0.71588970
H        3.94170845       0.81540965      -0.72588972
H        4.80619786       1.26039955       1.22578954
H        4.38907815       3.12410875       2.27221900
H        2.72043904       2.61370898       2.62107907
H        2.77310890       4.49460812       0.69573973
H        2.45885909       2.93732886      -1.34370949
