15
Properties=species:S:1:pos:R:3 atomization_energy=-1461.8 smiles=O.C.C.N.N.C.C.H.H.H.H.H.H.H.H pbc="F F F"
O        0.99444960      -0.01254999       0.45303983
C        2.39484896       0.03069999       0.16088994
C        2.71232887       1.23887948      -0.71872969
N        4.06709841       1.09331954      -1.23440955
N        4.35030845       0.01079999      -1.99359924
C        3.75809860      -1.09634954      -1.65385930
C        2.79458885      -1.27605948      -0.51148981
H        0.76451968       0.81357969       0.91221963
H        2.92547889       0.11768995       1.11714958
H        2.63089905       2.15613905      -0.12451995
H        1.98961922       1.33369951      -1.53813943
H        4.35894828       1.94405929      -1.72132927
H        3.98560854      -1.99851920      -2.24534900
H        1.92097919      -1.81261931      -0.89909967
H        3.26816870      -1.94630921       0.21558992
