15
Properties=species:S:1:pos:R:3 atomization_energy=-1540.23 smiles=C.C.C.N.C.N.C.H.H.H.H.H.H.H.H pbc="F F F"
C        0.98415959       0.05960997       0.01411000
C        2.48095902       0.02796999      -0.00746999
C        3.20692866       1.15891949      -0.00969000
N        4.57553832       1.20178956      -0.04594998
C        5.16277776       0.05325998       0.00274000
N        4.57400819      -1.17179948       0.09574996
C        3.14428869      -1.31722947      -0.03445999
H        0.56489979      -0.95185961      -0.00195000
H        0.59618975       0.59093975      -0.86113965
H        0.62108973       0.55398980       0.92104965
H        2.71792886       2.12996927       0.00702999
H        6.26415777       0.00039000      -0.02284999
H        5.13694812      -1.99701921      -0.05807998
H        2.77594890      -1.93578926       0.79063968
H        2.91141873      -1.82692927      -0.97532964
