13
Properties=species:S:1:pos:R:3 atomization_energy=-1211.08 smiles=C.C.O.C.S.O.O.H.H.H.H.H.H pbc="F F F"
C        0.97544962       0.07850997       0.06294998
C        2.47664895      -0.08244996      -0.03007999
O        3.16030870       0.90022967       0.78205967
C        4.19614844       0.01514999       1.25393949
S        3.22646869      -1.39374943       0.87363964
O        2.43306907      -1.84179928       2.00228927
O        3.92760843      -2.32057904       0.00538000
H        0.46869982      -0.74352969      -0.45371983
H        0.65950975       1.01446962      -0.40840984
H        0.62995974       0.09240997       1.10074956
H        2.82853877      -0.03991999      -1.06697956
H        5.11658802       0.10974996       0.67050976
H        4.39722844       0.14623994       2.31915917
