14
Properties=species:S:1:pos:R:3 atomization_energy=-1491.64 smiles=O.C.N.C.C.C.C.H.H.H.H.H.H.H pbc="F F F"
O        0.91007961       0.01331999       0.16853993
C        2.13243909       0.03329999       0.09973996
N        2.85521876       1.18352948       0.25865990
C        4.22654830       1.29912949      -0.18668993
C        5.05168791       0.04415998       0.09774996
C        4.25325832      -1.20762951      -0.11531996
C        2.91182877      -1.20634956      -0.13522995
H        2.28573916       2.01693925       0.33548986
H        4.67099827       2.17285902       0.30049987
H        4.19657841       1.49525939      -1.26498945
H        5.40976767       0.05366998       1.13393957
H        5.93549782       0.03992998      -0.55038980
H        4.79330827      -2.14143924      -0.23925990
H        2.33244921      -2.11150922      -0.27302989
