15
Properties=species:S:1:pos:R:3 atomization_energy=-1447.43 smiles=O.N.C.C.C.N.C.H.H.H.H.H.H.H.H pbc="F F F"
O        1.01861959       0.03286999       0.32661988
N        2.31506914       0.15406993      -0.17448993
C        3.00694882       1.34265941       0.28720990
C        4.40707845       1.30561946      -0.30282987
C        5.10010776       0.01060999       0.11036996
N        4.28883854      -1.19546954      -0.11067996
C        3.01510871      -1.02848958      -0.19581992
H        0.46908983       0.10265996      -0.47714983
H        2.47679908       2.23998923      -0.04815998
H        3.04823879       1.35997943       1.38266943
H        4.98935806       2.17035918       0.03295999
H        4.34913814       1.35393950      -1.39767949
H        5.37367774       0.05385998       1.17147953
H        6.03277757      -0.09018996      -0.45544981
H        2.36375897      -1.90832919      -0.32511987
