12
Properties=species:S:1:pos:R:3 atomization_energy=-1257.13 smiles=C.C.C.O.N.C.S.H.H.H.H.H pbc="F F F"
C        0.85430967       0.01648999      -0.00590000
C        2.33849910       0.02115999      -0.00291000
C        3.22493881       1.07503953      -0.00352000
O        2.81710892       2.34955903      -0.00709000
N        4.55837829       0.76347969      -0.00038000
C        4.68382830      -0.54573977       0.00248000
S        3.22512881      -1.45021940       0.00147000
H        0.45183983       1.03456957       0.00318000
H        0.46591983      -0.50229981       0.87694965
H        0.47009982      -0.48522982      -0.90034965
H        3.62933850       2.88485885      -0.00677000
H        5.64926788      -1.03424962       0.00526000
