14
Properties=species:S:1:pos:R:3 atomization_energy=-1455.95 smiles=C.C.C.C.C.C.H.H.H.H.H.H.H.H pbc="F F F"
C        0.99999962       0.00000000       0.00000000
C        2.44399905       0.00000000       0.00000000
C        3.63415853       0.00000000       0.00000000
C        5.06677783      -0.01798999       0.04079999
C        5.81260796      -0.74124969      -1.04832957
C        5.83689787       0.75898971      -0.99397963
H        0.60595976       1.02085959       0.01162999
H        0.60591977      -0.52053979       0.87823963
H        0.60600979      -0.50031980      -0.88994963
H        5.49982772      -0.06159998       1.03648962
H        5.24699786      -1.21120946      -1.84564922
H        6.71369751      -1.27731949      -0.77139968
H        6.75425724       1.24179946      -0.67997975
H        5.28718817       1.30302953      -1.75251931
