17
Properties=species:S:1:pos:R:3 atomization_energy=-1683.16 smiles=C.C.C.N.C.C.N.H.H.H.H.H.H.H.H.H.H pbc="F F F"
C        1.05438956       0.06339998       0.02660999
C        2.57386890       0.00029000      -0.04612998
C        3.07460867      -1.21199951      -0.85369966
N        3.37399870      -0.70927970      -2.22862903
C        3.36879866       0.59107979      -2.09764917
C        3.61776861       1.49109946      -3.26672865
N        3.08516874       1.08845951      -0.85299969
H        0.73048972       0.97819959       0.53511978
H        0.65708977      -0.79324967       0.58086977
H        0.59856974       0.06381997      -0.97048960
H        3.00203871       0.01224000       0.96074962
H        2.33931917      -2.02199925      -0.89573963
H        4.00220840      -1.60831931      -0.42422984
H        3.59408858       2.53962906      -2.95950878
H        2.84754890       1.32033945      -4.02383849
H        4.59655802       1.26372956      -3.69745861
H        2.64409900       1.99710917      -0.78512972
