18
Properties=species:S:1:pos:R:3 atomization_energy=-1732.03 smiles=O.C.C.C.C.N.C.H.H.H.H.H.H.H.H.H.H.H pbc="F F F"
O        2.01640923      -0.26507988      -1.39845944
C        2.30422898       0.08385997      -0.04987998
C        3.08334867       1.38935949      -0.02123999
C        2.29328916       2.58120897      -0.55037976
C        2.96264879       3.74578862       0.14872994
N        3.17687879       3.23912866       1.50272940
C        3.50393870       1.81462926       1.38497940
H        1.49229942      -1.08412951      -1.37517949
H        2.89382897      -0.72489970       0.39426986
H        1.35982942       0.16940994       0.49779980
H        3.98082838       1.28365944      -0.64665972
H        1.23650945       2.51728892      -0.26238989
H        2.34784898       2.66505890      -1.64018938
H        3.92153835       3.98677835      -0.32498988
H        2.33655918       4.64226834       0.14936995
H        3.92607855       3.75010853       1.96672924
H        4.57943836       1.65420941       1.52121935
H        2.97999884       1.25708947       2.16791913
