15
Properties=species:S:1:pos:R:3 atomization_energy=-1445.0 smiles=O.N.C.C.C.C.N.H.H.H.H.H.H.H.H pbc="F F F"
O        1.27906954      -0.01855999      -0.28758988
N        2.52285913      -0.06886998       0.35682986
C        3.28405876       1.16987950       0.15698994
C        4.33979835       0.77818972      -0.87489965
C        4.62404800      -0.69196971      -0.58412977
C        3.28085869      -1.14401958      -0.07450997
N        2.95748887      -2.38994894      -0.06032997
H        0.78699968      -0.76227967       0.10615995
H        3.75994844       1.45064937       1.10324954
H        2.66252902       2.00458915      -0.18213992
H        3.92293854       0.87996968      -1.88473925
H        5.23658818       1.40150949      -0.81546971
H        4.92908823      -1.24401947      -1.47647938
H        5.36914789      -0.81511967       0.20772992
H        2.03030914      -2.48625899       0.35590986
