15
Properties=species:S:1:pos:R:3 atomization_energy=-1571.3 smiles=C.C.C.C.S.C.C.H.H.H.H.H.H.H.H pbc="F F F"
C        2.29673903      -0.58274976      -1.40056944
C        2.45229898      -0.02270999       0.00473000
C        2.96213883       1.38781952       0.00259000
C        2.16263910       2.51598891      -0.02008999
S        3.06383867       3.96928851      -0.01704999
C        4.54152811       3.11523880       0.01656999
C        4.34953834       1.75104935       0.02489999
H        1.92476920      -1.61153931      -1.36042946
H        3.25396876      -0.58762979      -1.93337925
H        1.58910933       0.01229999      -1.98803925
H        3.13962889      -0.65917977       0.57498976
H        1.48590938      -0.06446997       0.52133978
H        1.08182951       2.55873887      -0.03994998
H        5.48053800       3.65063854       0.02852999
H        5.16811809       1.04091961       0.04485999
