13
Properties=species:S:1:pos:R:3 atomization_energy=-1318.6 smiles=C.N.C.N.S.C.C.H.H.H.H.H.H pbc="F F F"
C        3.12940871      -1.19736947       0.41885983
N        2.58823891      -0.03168999      -0.24156991
C        3.17015870       1.18886956      -0.14945994
N        2.44462912       2.29917908      -0.24050990
S        3.43294858       3.61892858      -0.10194996
C        4.88151823       2.73396905       0.07788996
C        4.57674800       1.38993948       0.02815999
H        2.47137901      -2.05441915       0.24339990
H        3.19840870      -1.04125957       1.50051936
H        4.11761841      -1.45848943       0.02700999
H        1.57154935       0.00550000      -0.24121990
H        5.84088773       3.21528865       0.19879992
H        5.31828800       0.60836978       0.10381996
