14
Properties=species:S:1:pos:R:3 atomization_energy=-1458.34 smiles=O.C.N.C.C.C.C.H.H.H.H.H.H.H pbc="F F F"
O        1.02221960      -0.24115991       0.11023995
C        2.22408908      -0.08812996       0.05692998
N        3.19193867      -1.07002962       0.09361997
C        4.50861805      -0.38307985      -0.00811000
C        4.32708843       0.72542971      -1.13081950
C        3.22494865       1.17753951      -0.07331997
C        4.40749833       0.87860968       0.95120961
H        2.97432895      -2.05321919       0.16600993
H        5.39701787      -1.01010959       0.00382000
H        3.94991855       0.37570985      -2.09608913
H        5.16759779       1.40806948      -1.29597952
H        2.80829877       2.17892910      -0.13091995
H        5.25439772       1.57336941       0.94964963
H        4.10755847       0.67588971       1.98334916
