14
Properties=species:S:1:pos:R:3 atomization_energy=-1440.98 smiles=N.C.C.C.C.C.S.H.H.H.H.H.H.H pbc="F F F"
N        2.08828919      -0.49650982      -1.29966949
C        2.52774906      -0.10904996       0.03640999
C        3.01268885       1.30642944       0.03451999
C        2.27324901       2.46301902      -0.12418995
C        3.07753874       3.63676865      -0.06506997
C        4.40598837       3.33945859       0.13591995
S        4.67779809       1.65566940       0.25095990
H        1.86415923      -1.48917947      -1.29861954
H        2.87010883      -0.38067984      -1.94293920
H        3.30735877      -0.79988971       0.37708985
H        1.68668936      -0.20401992       0.73250969
H        1.20115949       2.45883916      -0.28386989
H        2.70005901       4.64680828      -0.16844993
H        5.23434799       4.03040844       0.21891992
