10
Properties=species:S:1:pos:R:3 atomization_energy=-1076.42 smiles=O.C.O.N.C.C.C.H.H.H pbc="F F F"
O        2.81342892       3.31404858       1.18658950
C        3.25800883       4.01961850       0.29401988
O        4.44632807       3.91112843      -0.37663985
N        5.17279783       2.80504900       0.10299996
C        6.28226759       2.72656893      -0.53817980
C        7.08787701       1.61964936      -0.11002996
C        7.76491710       0.69351972       0.24552990
H        2.72437895       4.89243812      -0.11333996
H        6.63116752       3.40077862      -1.33512947
H        8.35446687      -0.13217995       0.57103976
