16
Properties=species:S:1:pos:R:3 atomization_energy=-1602.21 smiles=O.C.N.C.C.C.C.H.H.H.H.H.H.H.H.H pbc="F F F"
O        1.52631935       0.68819975       2.77443894
C        2.41762917       1.13108950       2.06371919
N        3.38989860       0.34815986       1.50972945
C        4.45854847       0.86195966       0.65270974
C        5.65579771       1.48115937       1.41348943
C        6.56940743       0.82397964       0.35864987
C        5.44839807      -0.21383992       0.14385995
H        2.51280903       2.19937904       1.80976923
H        3.30532877      -0.63571977       1.73946936
H        4.07244834       1.50134940      -0.15142993
H        5.80651769       1.09206962       2.42764900
H        5.68375752       2.57350908       1.44466937
H        6.75941741       1.45633944      -0.51622979
H        7.51899707       0.43045984       0.72911968
H        5.30323795      -0.54120980      -0.88906963
H        5.54089766      -1.09710956       0.78712969
