15
Properties=species:S:1:pos:R:3 atomization_energy=-1513.4 smiles=C.C.N.N.C.C.C.H.H.H.H.H.H.H.H pbc="F F F"
C        1.10141963      -0.03756998      -0.09533996
C        2.57180887       0.17092993      -0.10524996
N        3.16399879       1.27233948      -0.46139981
N        4.53672827       1.14851953      -0.38546984
C        4.81046832      -0.14130995       0.26656990
C        4.58291800      -1.43363946      -0.46267983
C        3.49362870      -0.85570967       0.39661985
H        0.86959969      -1.10352962      -0.16034994
H        0.64688972       0.48344982      -0.94174965
H        0.68909976       0.36359985       0.83406968
H        4.94010804       1.95383928       0.09720996
H        5.48767797      -0.13478995       1.11214951
H        5.10038785      -2.31476911      -0.10336996
H        4.46645805      -1.39695946      -1.53998939
H        3.26610867      -1.32008952       1.34633941
