18
Properties=species:S:1:pos:R:3 atomization_energy=-1794.17 smiles=C.C.C.C.N.C.C.H.H.H.H.H.H.H.H.H.H.H pbc="F F F"
C        0.99502958       0.02649999       0.12690995
C        2.33391903       0.00751000       0.03904999
C        3.13731879      -1.26961948      -0.01891999
C        4.13303837      -1.23970952      -1.18986956
N        4.99427801      -0.04454998      -1.17958958
C        4.16582832       1.17259950      -1.22255958
C        3.17090863       1.26096957      -0.05375998
H        0.44103983       0.96004965       0.15192994
H        0.41659985      -0.89087966       0.17724993
H        2.48661906      -2.14582904      -0.12058995
H        3.68519859      -1.38333950       0.92497965
H        4.77169812      -2.12893925      -1.14162949
H        3.59596870      -1.29350945      -2.14536905
H        5.52725764      -0.04017998      -0.30959989
H        4.82820821       2.04502914      -1.19731951
H        3.63055853       1.21540952      -2.17943907
H        3.72144850       1.38626944       0.88734967
H        2.54344911       2.15101925      -0.18011993
