15
Properties=species:S:1:pos:R:3 atomization_energy=-1554.85 smiles=C.C.C.C.C.N.N.H.H.H.H.H.H.H.H pbc="F F F"
C        0.97772962      -0.03494999      -0.00742999
C        2.45632897       0.06837997      -0.00028000
C        3.28838876       1.17053959       0.00491000
C        4.62520822       0.69910974       0.00885000
C        4.57581841      -0.67387977       0.00601000
N        5.55221774      -1.59129932       0.00613000
N        3.25982865      -1.04803958       0.00080000
H        0.51477980       0.95696963       0.00162000
H        0.62571976      -0.58136976       0.87338964
H        0.63337978      -0.56168976      -0.90315962
H        2.96978875       2.20486901       0.00494000
H        5.52238765       1.30237952       0.01240999
H        5.39410799      -2.59303901       0.03217999
H        6.53110758      -1.31879947       0.03282999
H        2.93387874      -2.00291922      -0.00367000
