19
Properties=species:S:1:pos:R:3 atomization_energy=-1780.77 smiles=C.C.C.C.N.N.C.H.H.H.H.H.H.H.H.H.H.H.H pbc="F F F"
C        0.99183960       0.10494995      -0.13750995
C        2.47758913       0.05310998      -0.04030998
C        3.32729875      -0.82381967      -0.94729961
C        2.74741881      -1.69810937      -2.01513924
N        3.74750851      -1.84736924      -3.06897891
N        3.27612874       0.63325973      -1.11670951
C        4.48618833       1.30267955      -0.64896975
H        0.61130975       0.96119965       0.42879985
H        0.55506978      -0.80287971       0.28988988
H        0.63596977       0.20671992      -1.16748954
H        2.81317886       0.17972992       0.98374962
H        4.22078833      -1.26357955      -0.51418979
H        1.83376934      -1.27737955      -2.44670909
H        2.50353913      -2.68022905      -1.59846943
H        3.98138855      -0.90868965      -3.39904863
H        3.32063871      -2.32164918      -3.86193847
H        4.25522852       2.34350914      -0.39969984
H        5.23311812       1.31106943      -1.44950946
H        4.94600805       0.84175966       0.23383990
