16
Properties=species:S:1:pos:R:3 atomization_energy=-1655.54 smiles=C.C.N.C.C.C.C.H.H.H.H.H.H.H.H.H pbc="F F F"
C        0.93631960      -0.00397000       0.07489997
C        2.46459912       0.00008000       0.10482996
N        2.94102880       0.01789999       1.47783945
C        3.03628889       1.16320950      -0.65762976
C        3.78644853       0.72102969      -1.68152931
C        3.78873843      -0.72075970      -1.67889939
C        3.04389870      -1.16451960      -0.65476977
H        0.55135976      -0.00078000      -0.95256961
H        0.52476978       0.87892963       0.57922974
H        0.52880979      -0.89246966       0.57252978
H        3.95924850      -0.01703999       1.46333949
H        2.63321898      -0.82862967       1.94955923
H        2.86161889       2.19921906      -0.40839984
H        4.31790811       1.33133945      -2.39453910
H        4.31871809      -1.32817951      -2.39654917
H        2.86952897      -2.20294902      -0.41681982
