18
Properties=species:S:1:pos:R:3 atomization_energy=-1762.4 smiles=C.C.C.N.C.C.C.H.H.H.H.H.H.H.H.H.H.H pbc="F F F"
C        0.86854967      -0.11075995       0.25875990
C        2.34102897       0.13952994       0.00437000
C        3.03649883       1.17033950       0.91647961
N        4.22548826       0.28858987       0.94153964
C        3.34466873      -0.86673964       0.62755976
C        3.98868849      -1.80757925      -0.31815988
C        5.04487799      -2.53854909       0.05966998
H        0.52187980      -0.97731964      -0.31324989
H        0.27293991       0.75494970      -0.04803998
H        0.66649971      -0.30197989       1.31777943
H        2.52328910       0.34667987      -1.06089964
H        2.57879895       1.30448952       1.90379921
H        3.20650878       2.15567905       0.47320980
H        4.89286810       0.49003982       0.19667993
H        2.96815895      -1.37182941       1.52766944
H        3.57702847      -1.91747923      -1.31712942
H        5.46824796      -2.45201915       1.05698958
H        5.51239785      -3.23829874      -0.62562974
