14
Properties=species:S:1:pos:R:3 atomization_energy=-1401.67 smiles=C.C.C.C.C.O.H.H.H.H.H.H.H.H pbc="F F F"
C        1.06167960       0.21000991       0.85290968
C        1.96850919       0.32685988      -0.12508995
C        3.09879866       1.28680955      -0.04336998
C        2.77271880       2.73027896      -0.44993981
C        3.47594860       3.10758887       0.85016967
O        3.49884867       1.72688927       1.28475948
H        0.24744991      -0.50285979       0.77409968
H        1.11518960       0.80995968       1.75718933
H        1.89821928      -0.29282989      -1.01361958
H        3.97560840       0.88496962      -0.56841975
H        1.71188930       2.99749876      -0.47571980
H        3.26252859       3.07994876      -1.36223943
H        4.48924810       3.50518850       0.74014971
H        2.89690893       3.73881847       1.52923945
