15
Properties=species:S:1:pos:R:3 atomization_energy=-1465.83 smiles=O.C.C.C.N.C.N.H.H.H.H.H.H.H.H pbc="F F F"
O        4.22357836      -1.14108951      -0.59180978
C        3.16926873      -0.57719980       0.16931993
C        3.29947872       0.91215964       0.25581989
C        4.23816841       1.65646928      -0.34648986
N        4.37336850       3.01938875      -0.26830988
C        5.27980799       3.84422859      -0.87206963
N        6.21592768       3.56790871      -1.70759930
H        4.09664842      -2.10441921      -0.57786974
H        3.19675870      -1.00727963       1.17536959
H        2.21706922      -0.83864968      -0.30249988
H        2.54876901       1.40077950       0.87025966
H        4.98928791       1.17078953      -0.96522964
H        3.69666856       3.47319870       0.33640986
H        5.14347795       4.89586831      -0.56575979
H        6.21447778       2.56400906      -1.90082927
