12
Properties=species:S:1:pos:R:3 atomization_energy=-1255.56 smiles=C.C.C.S.N.C.O.H.H.H.H.H pbc="F F F"
C        0.96080961       0.00783000      -0.00814000
C        2.43986914       0.08811997      -0.00103000
C        3.21754878       1.17919947       0.00436000
S        4.91703790       0.85245964       0.01228999
N        4.59955824      -0.80435969       0.00869000
C        3.26918862      -1.14174961       0.00169000
O        2.82171901      -2.27596914      -0.00170000
H        0.50593982       1.00377961      -0.00483000
H        0.60030975      -0.52839979       0.87556965
H        0.60853979      -0.51887980      -0.90079962
H        2.84190879       2.19412903       0.00383000
H        5.31467815      -1.51849935       0.01167999
