17
Properties=species:S:1:pos:R:3 atomization_energy=-1563.63 smiles=C.C.C.S.C.O.O.H.H.H.H.H.H.H.H.H.H pbc="F F F"
C        1.19397953      -0.29234989      -0.01598999
C        2.71195895      -0.23859991       0.02620999
C        3.22276876       1.18205953      -0.17470994
S        5.00720797       1.25118946      -0.11591995
C        5.34557812       2.96461874      -0.43686984
O        5.42560801       0.96944962       1.24358949
O        5.52711785       0.48845982      -1.23502953
H        0.84727966      -1.32170949       0.11748995
H        0.81494966       0.07198997      -0.97603963
H        0.75788967       0.31908987       0.78045969
H        3.11813884      -0.89635967      -0.75077973
H        3.06220887      -0.63198975       0.98737959
H        2.84735889       1.84729922       0.60880978
H        2.91609897       1.56987942      -1.15163960
H        4.94710821       3.22453861      -1.41916941
H        6.42779762       3.10615866      -0.42348982
H        4.87893790       3.56884865       0.34308986
