13
Properties=species:S:1:pos:R:3 atomization_energy=-1312.73 smiles=N.C.C.C.C.N.S.H.H.H.H.H.H pbc="F F F"
N        0.88820962       0.13416995      -0.12581995
C        2.23070924       0.02915999      -0.06078998
C        3.14173888       1.06026957      -0.03129999
C        4.48774825       0.59082979       0.04468998
C        4.56084811      -0.78300969       0.06994997
N        5.67640762      -1.53620935       0.14064995
S        3.00688877      -1.49030941      -0.00171000
H        0.42799983       1.01138960       0.09494996
H        0.32647987      -0.68941971       0.07091997
H        2.86433877       2.10589914      -0.06291998
H        5.35521769       1.23682954       0.08174997
H        5.60703772      -2.53055902      -0.05377998
H        6.58611731      -1.13449950      -0.05898998
