16
Properties=species:S:1:pos:R:3 atomization_energy=-1599.84 smiles=O.C.C.C.C.N.C.H.H.H.H.H.H.H.H.H pbc="F F F"
O        0.87112963       0.14637995      -0.34197985
C        2.01074919       0.13781994       0.11542995
C        2.98853873       1.27843947      -0.03191999
C        2.31562906       2.64133900      -0.12436995
C        3.26278875       3.55517860       0.62678977
N        3.70978852       2.71571894       1.73344937
C        3.92080836       1.38027948       1.17508950
H        2.41446898      -0.78491971       0.56723978
H        3.58496857       1.08141960      -0.93119961
H        1.32965943       2.63907887       0.35704986
H        2.17924906       2.95949894      -1.16297949
H        4.11172849       3.84278854      -0.00484000
H        2.76566892       4.46284820       0.98069962
H        4.56200833       3.08513871       2.15240909
H        4.96221781       1.28085945       0.84565969
H        3.73853864       0.61882973       1.94006918
