15
Properties=species:S:1:pos:R:3 atomization_energy=-1461.01 smiles=O.C.C.C.N.N.C.H.H.H.H.H.H.H.H pbc="F F F"
O        0.94389963       0.09167996      -0.25078991
C        2.33267908       0.02526999       0.07061997
C        3.01449883       1.33003944      -0.31189989
C        3.57074870       1.23770954      -1.72314933
N        4.42004827       0.05243998      -1.78004928
N        3.87920852      -1.16199957      -1.51543946
C        2.91304879      -1.17941951      -0.64597975
H        0.51827979       0.64356974       0.42876982
H        2.41034916      -0.15608994       1.14816955
H        2.32236907       2.17749914      -0.23870991
H        3.84114839       1.52113936       0.38353985
H        4.16483842       2.12961928      -1.94715919
H        2.76816902       1.17259950      -2.46617897
H        4.93236803       0.01969999      -2.66418886
H        2.46003899      -2.15551907      -0.40104984
