11
Properties=species:S:1:pos:R:3 atomization_energy=-1218.16 smiles=C.C.C.N.C.C.N.H.H.H.H pbc="F F F"
C        1.04265956       0.00523000      -0.11873995
C        2.24052922       0.02427999      -0.04403998
C        3.67092850       0.04525998       0.04711998
N        4.44518804      -0.68760974      -0.95147960
C        4.46043843       0.77939972      -1.01240959
C        5.62396763       1.51394944      -0.59937978
N        6.54737740       2.13189910      -0.26428990
H       -0.02162999      -0.01527000      -0.17825993
H        4.08202835       0.00766000       1.05226960
H        3.82600851      -1.07241958      -1.66609939
H        3.91989845       1.21071956      -1.84807930
