15
Properties=species:S:1:pos:R:3 atomization_energy=-1419.95 smiles=C.C.C.N.C.N.S.H.H.H.H.H.H.H.H pbc="F F F"
C        0.96308961      -0.15988994      -0.03586998
C        2.41795897       0.13883994      -0.14153995
C        3.27970882      -0.58709977      -1.11681953
N        2.89295894       0.77842969      -1.33094948
C        3.77049841       1.83267927      -1.33477949
N        4.79511800       1.83023923      -0.44613983
S        3.61236847       3.10319882      -2.39931901
H        0.42013984       0.72556970       0.30954989
H        0.79727972      -0.96409963       0.68758974
H        0.53263981      -0.47040981      -0.99393963
H        2.83664894       0.48967981       0.79187970
H        2.83259878      -1.26624947      -1.83061923
H        4.32409830      -0.75665968      -0.89824963
H        4.93392794       1.10426958       0.23822991
H        5.43629777       2.61404887      -0.44846982
