15
Properties=species:S:1:pos:R:3 atomization_energy=-1417.75 smiles=C.S.O.O.C.C.C.H.H.H.H.H.H.H.H pbc="F F F"
C        3.69845859      -0.94654962      -1.58378943
S        2.98722888      -0.38833985      -0.05201998
O        1.54477940      -0.43416984      -0.21016992
O        3.62668852      -1.11741957       1.02870962
C        3.46191873       1.33990951       0.05015998
C        4.95710810       1.47407946       0.07966997
C        5.66858787       2.19651912      -0.79604967
H        4.78645798      -0.91690965      -1.51112938
H        3.34283857      -0.30447989      -2.39163905
H        3.36914864      -1.97398919      -1.75355929
H        3.02921882       1.73454928       0.97410961
H        3.00818878       1.85584921      -0.80115969
H        5.47865763       0.95703959       0.88607963
H        5.20137788       2.74615892      -1.60832940
H        6.75051718       2.26228901      -0.70959971
