10
Properties=species:S:1:pos:R:3 atomization_energy=-1144.88 smiles=C.C.C.C.C.N.S.H.H.H pbc="F F F"
C        0.87140966       0.09842996      -0.00365000
C        2.07112915       0.07044997      -0.00066000
C        3.49380861       0.03825998       0.00295000
C        4.33753848       1.12858952       0.00439000
C        5.69581795       0.69756969       0.00823000
N        5.91435751      -0.61481974       0.00964000
S        4.44089841      -1.38489941       0.00630000
H       -0.19405993       0.12023995      -0.00627000
H        4.01211846       2.15992907       0.00288000
H        6.56526718       1.34299943       0.01009000
