15
Properties=species:S:1:pos:R:3 atomization_energy=-1446.76 smiles=O.C.C.N.N.C.C.H.H.H.H.H.H.H.H pbc="F F F"
O        0.95830964       0.20368991      -0.04662998
C        2.32738921      -0.13996995       0.12613995
C        3.22134864       1.08601960      -0.10608996
N        2.77202893       2.03993924      -0.86861963
N        4.45872813       1.06103956       0.52411981
C        5.59182769       1.63720935      -0.21878992
C        5.01387809       2.35639898       0.95101960
H        0.74968973       0.84959966       0.65258975
H        2.59078897      -0.90651966      -0.60837974
H        2.47737895      -0.53963979       1.13320958
H        1.83494924       1.75765929      -1.20051958
H        5.36565764       1.98749925      -1.21692956
H        6.50679749       1.07844953      -0.08770997
H        5.52501795       2.30220907       1.90069920
H        4.38268811       3.21755862       0.77813970
