13
Properties=species:S:1:pos:R:3 atomization_energy=-1324.24 smiles=C.C.C.N.S.C.N.H.H.H.H.H.H pbc="F F F"
C        0.97140961      -0.11947995       0.00053000
C        2.47855910       0.08035997       0.01623000
C        2.85487887       1.52167936       0.00030000
N        3.05874890       2.18425910       1.14350949
S        3.45076872       3.75191850       0.72109971
C        3.32087868       3.43503864      -0.95769963
N        2.99146881       2.18728909      -1.21407948
H        0.72935971      -1.18686959       0.00463000
H        0.52273981       0.32843989      -0.89263967
H        0.50252981       0.33977987       0.87738965
H        2.91865887      -0.41639985      -0.85653965
H        2.90187885      -0.40790985       0.90223961
H        3.49124871       4.18050844      -1.72120929
