12
Properties=species:S:1:pos:R:3 atomization_energy=-1276.01 smiles=O.C.N.C.C.O.C.H.H.H.H.H pbc="F F F"
O        1.40965942       0.15932993       0.82960966
C        2.40630909      -0.08036996       0.17301993
N        2.83171890      -1.31173949      -0.26843989
C        4.03555852      -1.26191946      -1.06577960
C        4.44350802       0.17784993      -1.03184957
O        3.56519867       1.10581953      -1.67499936
C        3.39638856       0.92922966      -0.25706989
H        2.25967914      -2.13306916      -0.12542995
H        4.78292787      -1.91272922      -0.60443978
H        3.80948838      -1.60602940      -2.07855917
H        5.49139784       0.39764983      -0.92512966
H        3.68500858       1.71674933       0.42115982
