17
Properties=species:S:1:pos:R:3 atomization_energy=-1743.92 smiles=C.C.C.C.C.C.C.H.H.H.H.H.H.H.H.H.H pbc="F F F"
C        1.27144951      -0.20561992       0.20987991
C        2.72793884      -0.14924995      -0.10328996
C        3.21972867      -0.48563980      -1.48685941
C        3.26952877       0.94384961      -0.99723962
C        4.57414798       1.59790938      -0.65501977
C        5.02420803       2.20257910      -1.88665923
C        5.39515769       2.70094898      -2.90179885
H        1.04202962       0.45845981       1.04883960
H        0.98639960      -1.22360953       0.49228980
H        0.65452974       0.09693996      -0.64250975
H        3.33014858      -0.47582982       0.73743974
H        2.49452914      -0.72813969      -2.25566909
H        4.15013836      -1.03592957      -1.57509939
H        2.54895901       1.64768930      -1.40430949
H        5.30407771       0.87399965      -0.27745988
H        4.41597817       2.35282899       0.12184995
H        5.72561776       3.14522887      -3.81219842
