16
Properties=species:S:1:pos:R:3 atomization_energy=-1621.71 smiles=O.C.N.C.C.C.C.H.H.H.H.H.H.H.H.H pbc="F F F"
O        1.50919943      -0.06590997       1.09930951
C        2.43280892       0.08048996       0.30898987
N        3.00340887       1.27567947      -0.02881999
C        2.57063906       2.54369892       0.52318978
C        3.28309864       3.58061864      -0.33439985
C        4.56777813       2.86480886      -0.74278973
C        4.10762836       1.42908943      -0.95261964
H        2.89405885      -0.77405969      -0.21317992
H        2.90256897       2.58782887       1.56618933
H        1.48090944       2.63350891       0.49136980
H        2.68586891       3.80379857      -1.22686952
H        3.46539863       4.51701816       0.19977993
H        5.03256827       3.29375862      -1.63450940
H        5.29222773       2.91031882       0.07921997
H        3.72102862       1.27388955      -1.96571929
H        4.88851791       0.68972970      -0.75248972
