17
Properties=species:S:1:pos:R:3 atomization_energy=-1660.28 smiles=C.C.N.N.C.C.C.H.H.H.H.H.H.H.H.H.H pbc="F F F"
C        1.04829961      -0.07208997      -0.00251000
C        2.57387900      -0.00336000       0.00150000
N        3.14359881      -1.09569953      -0.79174969
N        3.39383875      -0.72363974      -2.07201912
C        3.39773878       0.56940977      -2.07013913
C        3.10315869       1.21809949      -0.75075968
C        4.39327845       1.78027928      -0.17322993
H        0.62718978       0.77362972       0.55189981
H        0.69858975      -0.99422963       0.47535982
H        0.63720973      -0.04307998      -1.01825957
H        2.93417876      -0.04472998       1.03464962
H        2.61108902      -1.96503925      -0.73778972
H        3.60839854       1.17690957      -2.96166873
H        2.35579919       2.00633919      -0.88093964
H        5.17915809       1.01889961      -0.10512996
H        4.22309843       2.18462926       0.83001970
H        4.77853831       2.58821898      -0.80564967
