14
Properties=species:S:1:pos:R:3 atomization_energy=-1384.23 smiles=O.N.C.C.C.C.O.H.H.H.H.H.H.H pbc="F F F"
O        1.24836953       0.05520998       0.61612978
N        2.30491911       0.07183997      -0.30476989
C        2.89788898       1.21923952      -0.30364989
C        2.58734894       2.42278909       0.52881979
C        3.29907877       3.50724853      -0.24020991
C        4.45775817       2.76529900      -0.85761969
O        3.96819844       1.44802941      -1.11294952
H        0.89094962      -0.84546969       0.49979981
H        3.01231894       2.28412903       1.52778943
H        1.51427936       2.61341905       0.59950974
H        2.64009904       3.88683851      -1.03101958
H        3.60876846       4.35340809       0.37779985
H        4.78489808       3.22542883      -1.79506929
H        5.31450807       2.69458897      -0.17867993
