12
Properties=species:S:1:pos:R:3 atomization_energy=-1236.01 smiles=C.O.C.C.C.N.S.H.H.H.H.H pbc="F F F"
C        3.08877884      -1.19279950       0.53727980
O        2.38615918       0.01499999       0.27450988
C        3.09381891       1.15040949       0.19877993
C        2.58445899       2.41256917      -0.04744998
C        3.61542849       3.39051857      -0.05997997
N        4.85399798       2.96218879       0.15681993
S        4.79891810       1.32038954       0.38736986
H        2.35752917      -2.00647923       0.56355978
H        3.58369859      -1.15786953       1.51332946
H        3.80562848      -1.41457950      -0.26005989
H        1.53463934       2.61085890      -0.20738992
H        3.48098867       4.45184807      -0.23027990
