12
Properties=species:S:1:pos:R:3 atomization_energy=-1362.56 smiles=O.C.C.C.N.C.C.H.H.H.H.H pbc="F F F"
O        0.98699964      -0.03550999       0.09662996
C        2.34655907       0.02968999       0.00859000
C        3.01495883       1.24373950      -0.03371999
C        4.39619843       1.20775946      -0.12334995
N        5.11932783       0.06639998      -0.17125994
C        4.42719833      -1.09379960      -0.12732995
C        3.04868870      -1.16381951      -0.03794999
H        0.62901975       0.86785967       0.12009995
H        2.49722908       2.19339904       0.00072000
H        4.97947828       2.12309905      -0.16038993
H        5.03115824      -1.99557916      -0.16729993
H        2.53734900      -2.11805923      -0.00558000
