13
Properties=species:S:1:pos:R:3 atomization_energy=-1317.19 smiles=O.N.C.C.N.C.C.H.H.H.H.H.H pbc="F F F"
O        1.02997960       0.09566996      -0.33721987
N        2.36708899      -0.02144999       0.06581997
C        2.94538883       1.13609953       0.09554996
C        4.40287814       1.28579947       0.51770981
N        4.59485832       2.72542890       0.32650987
C        3.39518873       3.31197871      -0.01393999
C        2.37481916       2.47196896      -0.21761991
H        0.72855970      -0.83195969      -0.33251986
H        5.05947788       0.70598974      -0.13548994
H        4.52619798       0.99803964       1.56541934
H        5.12389805       3.21404869       1.04462958
H        3.35306858       4.39220806      -0.09017997
H        1.35729942       2.67560887      -0.49032981
