15
Properties=species:S:1:pos:R:3 atomization_energy=-1395.15 smiles=C.C.O.C.C.H.H.H.H.H.H.H.H.H.H pbc="F F F"
C        1.13225955      -0.12388995      -0.15832993
C        2.63132902      -0.14503994       0.06795997
O        3.15281875       1.14558959      -0.23802991
C        4.56286827       1.20483949      -0.04278998
C        5.03584807       2.60326903      -0.38626986
H        0.69022976      -1.09794957       0.06796998
H        0.90354966       0.13598994      -1.19645957
H        0.65874973       0.63481977       0.47243981
H        3.09580879      -0.89557965      -0.58205976
H        2.84657894      -0.39312986       1.11368962
H        5.05783823       0.47462983      -0.69198971
H        4.80201824       0.97794959       1.00169957
H        4.79083795       2.84927888      -1.42538950
H        6.11699768       2.69526900      -0.24792991
H        4.53464804       3.34598867       0.24304990
