16
Properties=species:S:1:pos:R:3 atomization_energy=-1435.8 smiles=C.C.S.O.O.N.C.H.H.H.H.H.H.H.H.H pbc="F F F"
C        0.60029978       0.06741997       0.28087989
C        2.04305919      -0.31552989       0.01754999
S        3.09041874       1.13245953      -0.08103997
O        2.73809896       1.87985929      -1.26697947
O        3.17202873       1.76033931       1.21856946
N        4.58812814       0.44189981      -0.41524985
C        5.38949790      -0.02471999       0.71560974
H       -0.02450999      -0.82809965       0.35052988
H        0.20703992       0.69760975      -0.52312979
H        0.50550981       0.62462975       1.21843951
H        2.12860920      -0.85154968      -0.93218964
H        2.41964908      -0.94486966       0.82861970
H        5.08374811       0.98284961      -1.12619957
H        4.81161794      -0.68856973       1.36342943
H        5.77314789       0.82225969       1.29043946
H        6.24544741      -0.58784976       0.33236988
