14
Properties=species:S:1:pos:R:3 atomization_energy=-1428.21 smiles=O.N.C.C.C.C.C.H.H.H.H.H.H.H pbc="F F F"
O        0.58768978       1.26601947       0.15024993
N        1.81296930       0.61187977      -0.02633999
C        2.76975895       1.47111936       0.11142995
C        4.18529845       1.07684963      -0.02149999
C        5.14590790       1.99834925       0.11918995
C        6.54992746       1.68061928      -0.00117000
C        7.51732714       2.59534885       0.13014995
H       -0.05413998       0.54236976       0.02398999
H        2.56794896       2.53468893       0.33337987
H        4.38276835       0.03259999      -0.23467991
H        4.88955801       3.03475876       0.33153987
H        6.82478736       0.64813977      -0.20871991
H        7.30601688       3.63984861       0.33662986
H        8.56095661       2.31063920       0.03093999
