13
Properties=species:S:1:pos:R:3 atomization_energy=-1375.13 smiles=C.C.C.C.N.N.C.H.H.H.H.H.H pbc="F F F"
C        0.88106966      -0.07929997       0.00638000
C        2.21632914       0.03629999      -0.01448000
C        2.95568874       1.31980943      -0.05055998
C        4.44000818       1.10520952      -0.00007000
N        5.06246801      -0.03050999       0.02617999
N        4.33400836      -1.22300948       0.01315000
C        3.04336881      -1.18295959      -0.00036000
H        0.24382990       0.80033968      -0.00284000
H        0.38245984      -1.04370958       0.03364998
H        2.68514901       1.95279929       0.80154967
H        2.73432887       1.87370921      -0.96928965
H        5.05878801       2.01808925       0.00870000
H        2.50093911      -2.14315913      -0.00125000
