20
Properties=species:S:1:pos:R:3 atomization_energy=-1916.78 smiles=C.C.C.C.C.N.C.H.H.H.H.H.H.H.H.H.H.H.H.H pbc="F F F"
C        0.91971961       0.01316000       0.07804997
C        2.43362899       0.02949999       0.02285999
C        3.14826871       1.04781961       0.94514962
C        4.22660835      -0.03422998       1.22315949
C        5.48523793      -0.00700000       0.35918985
N        6.36058767       1.08743959       0.76955968
C        3.16634875      -1.08723962       0.80501966
H        0.52409978      -0.84040969      -0.48113981
H        0.50889978       0.92559963      -0.36542985
H        0.55302981      -0.05740998       1.10727951
H        2.78149892       0.10102996      -1.01704958
H        2.57633897       1.32554946       1.83926928
H        3.48766863       1.96364928       0.45333982
H        4.49098818      -0.11458996       2.28619916
H        5.24162774       0.10080995      -0.70343974
H        6.02978745      -0.94974962       0.47696982
H        5.90288754       1.97940926       0.58403974
H        7.20167740       1.07862958       0.19327993
H        3.52646860      -1.92502923       0.20075992
H        2.59993901      -1.48971946       1.65412929
