15
Properties=species:S:1:pos:R:3 atomization_energy=-1522.96 smiles=C.C.N.C.C.C.N.H.H.H.H.H.H.H.H pbc="F F F"
C        1.04406959      -0.00964000      -0.04646999
C        2.53385901      -0.00290000      -0.03906998
N        3.27028879      -0.61214976      -1.13991958
C        3.31152880       0.84778968      -1.02073961
C        4.57138798       1.52434940      -0.56784979
C        5.24003805       1.95879922      -1.79970929
N        5.76378791       2.33371919      -2.76535880
H        0.66378973       0.78337967       0.60501976
H        0.66850972      -0.96681964       0.32888989
H        0.63187973       0.14915995      -1.04865956
H        2.94223873      -0.17236992       0.95082959
H        2.64819888      -0.89802966      -1.90006925
H        2.74029903       1.42367944      -1.74312931
H        5.21518797       0.85386967       0.01137000
H        4.32448840       2.38722906       0.05896998
