20
Properties=species:S:1:pos:R:3 atomization_energy=-1934.67 smiles=C.C.C.C.N.C.C.H.H.H.H.H.H.H.H.H.H.H.H.H pbc="F F F"
C        0.97712964       0.03616999       0.17109993
C        2.49861893       0.00918000       0.00158000
C        2.98256883      -1.33314942      -0.56439979
C        2.69020900      -1.47822943      -2.05815920
N        3.24097875      -0.36328986      -2.83260887
C        2.69744889       0.91654963      -2.37168899
C        2.98981881       1.15869958      -0.89100967
H        0.65695976       0.98531962       0.61377976
H        0.65133977      -0.76781973       0.83918967
H        0.44913983      -0.08421996      -0.77899970
H        2.93498874       0.13899995       1.00070962
H        2.52764888      -2.16560904      -0.01584999
H        4.06635832      -1.41145942      -0.40686983
H        3.13519871      -2.41067896      -2.42359908
H        1.61201937      -1.56117941      -2.23885904
H        4.25453814      -0.35155986      -2.71624883
H        3.14837873       1.72011934      -2.96389884
H        1.62021938       0.95645961      -2.56896888
H        4.07416848       1.26911948      -0.75712971
H        2.53954908       2.10727914      -0.57479975
