13
Properties=species:S:1:pos:R:3 atomization_energy=-1229.6 smiles=C.C.C.S.O.O.O.H.H.H.H.H.H pbc="F F F"
C        1.01421962      -0.04270998       0.09359996
C        2.51967900       0.10016996      -0.00508000
C        3.15281875       1.17091948       0.88082963
S        4.36668829      -0.03123999       1.25633954
O        4.49828812      -0.25403990       2.67791896
O        5.47654764      -0.00030000       0.33204986
O        3.18963867      -0.99818959       0.66052974
H        0.67213975      -0.91461962      -0.47275980
H        0.51595979       0.84112965      -0.31681987
H        0.68925974      -0.16510993       1.13191954
H        2.84264888       0.16221993      -1.05361957
H        2.56853891       1.47830942       1.75230937
H        3.53684850       2.04872920       0.35630987
