11
Properties=species:S:1:pos:R:3 atomization_energy=-1169.02 smiles=O.N.C.C.C.C.N.H.H.H.H pbc="F F F"
O        0.90809963       0.21962991       0.37810984
N        2.26951905      -0.09661996       0.29666990
C        2.94579886       0.99740963       0.14304995
C        4.42471842       1.06235963       0.01763999
C        5.15223788      -0.06495997       0.06084997
C        5.02731827       2.33820917      -0.14646994
N        5.51619796       3.38224867      -0.28039989
H        0.49312981      -0.65665973       0.49095979
H        2.42871913       1.97463919       0.09646996
H        4.68730795      -1.03847957       0.18650992
H        6.23468750      -0.04655998      -0.02830999
