13
Properties=species:S:1:pos:R:3 atomization_energy=-1221.07 smiles=C.C.S.O.O.C.O.H.H.H.H.H.H pbc="F F F"
C        1.10134960      -0.27115990       0.03712998
C        2.54845889       0.16268993      -0.08276997
S        2.71473888       1.92939923       0.07635997
O        2.10801923       2.57432890      -1.07228962
O        2.37774898       2.32017910       1.43251949
C        4.45557803       2.21288911      -0.07859997
O        5.22140793       1.29856944      -0.37049985
H        1.02119961      -1.35834949      -0.05573998
H        0.48766980       0.18533993      -0.74577973
H        0.68062975       0.02157999       1.00426963
H        2.95053891      -0.12268995      -1.05910961
H        3.14973879      -0.29828989       0.70683972
H        4.79442812       3.24306881       0.10580996
