13
Properties=species:S:1:pos:R:3 atomization_energy=-1360.8 smiles=O.C.N.C.C.C.N.H.H.H.H.H.H pbc="F F F"
O        1.51334940       0.03842998       1.22451956
C        2.37048915       0.01057999       0.36046987
N        2.93813885      -1.13118954      -0.21119992
C        3.93112845      -0.80574966      -1.19413951
C        5.18932805      -0.06077997      -0.86313969
C        3.96323836       0.72663971      -1.21227947
N        2.98499878       1.11544950      -0.23782991
H        2.67193896      -2.05730922       0.08582996
H        3.84058847      -1.31929947      -2.14322928
H        5.52871763      -0.05620997       0.16668993
H        5.99637779      -0.08611996      -1.58661933
H        3.89266838       1.22155946      -2.17218908
H        2.75632888       2.05850918       0.03851998
