14
Properties=species:S:1:pos:R:3 atomization_energy=-1373.73 smiles=O.N.C.C.C.C.O.H.H.H.H.H.H.H pbc="F F F"
O        0.75813973       1.30463953      -0.67455973
N        2.11843924       1.38134949      -0.99271961
C        2.80725891       1.11502962       0.07092997
C        4.31009846       1.16350952       0.03777998
C        4.79220811       2.60386907      -0.05922998
C        4.48419845       3.40662866       1.17988948
O        4.05017834       2.92789874       2.22245902
H        0.33048985       1.55150945      -1.51585946
H        2.32944899       0.88562966       1.04023958
H        4.65335829       0.60068976      -0.83728968
H        4.69381810       0.66706973       0.93523963
H        4.32785854       3.11576870      -0.90944967
H        5.87809751       2.62656904      -0.20083993
H        4.70622825       4.48478840       1.10598960
