13
Properties=species:S:1:pos:R:3 atomization_energy=-1351.55 smiles=O.C.C.N.C.N.C.H.H.H.H.H.H pbc="F F F"
O        0.88095964       0.00775999       0.10241995
C        2.11503921       0.00364000       0.04745998
C        2.88104890       1.29811954      -0.06541997
N        4.27204842       1.12685954       0.29967989
C        4.88503826      -0.04155998      -0.02318999
N        4.33631820      -1.17937952      -0.19939992
C        2.88868899      -1.29797950       0.03508999
H        2.42439897       2.03766914       0.59927973
H        2.81121900       1.65113929      -1.09904961
H        4.83495807       1.96630923       0.21274991
H        5.97788745       0.06617998      -0.13783994
H        2.46733893      -1.92291923      -0.75858970
H        2.72829891      -1.79669935       0.99621963
