16
Properties=species:S:1:pos:R:3 atomization_energy=-1546.36 smiles=C.C.C.C.C.O.H.H.H.H.H.H.H.H.H.H pbc="F F F"
C        3.12411884      -1.15660952      -0.43231983
C        2.43841900       0.06755997       0.15375994
C        3.35774857       1.25080945       0.18030992
C        3.49799857       2.13513928      -1.03136957
C        2.78270885       2.64197891       0.18966993
O        3.48665855       3.61171847       0.97554961
H        2.44235915      -2.01219920      -0.43196982
H        4.01134834      -1.42455945       0.14960995
H        3.44230856      -0.97102960      -1.46272947
H        2.11467913      -0.15396995       1.17791953
H        1.53387944       0.28629990      -0.42781982
H        4.23854842       1.06433955       0.78340970
H        2.89804896       1.91754925      -1.90801920
H        4.47730829       2.53544895      -1.26160948
H        1.70497934       2.75165898       0.12390995
H        4.44467833       3.44782855       0.99705958
