20
Properties=species:S:1:pos:R:3 atomization_energy=-1931.93 smiles=C.C.C.N.C.C.C.H.H.H.H.H.H.H.H.H.H.H.H.H pbc="F F F"
C        1.00422958       0.01906999      -0.02057999
C        2.52410893       0.00235000       0.03428999
C        3.09144876       1.09807952       0.92260963
N        4.46181818       0.64235974       1.18168948
C        4.35110835      -0.80551966       1.40651941
C        3.09852867      -1.27534954       0.65800977
C        3.40276875      -2.34272918      -0.38720985
H        0.62832975      -0.79481968      -0.64935973
H        0.64374977       0.96482963      -0.43861982
H        0.56556979      -0.09554996       0.97664964
H        2.91290875       0.13092995      -0.98520960
H        2.54383896       1.19158957       1.86681931
H        3.08673874       2.07435925       0.42630984
H        5.01418796       0.79210970       0.33546986
H        5.26459796      -1.31541950       1.08308953
H        4.23558857      -0.99300960       2.48051895
H        2.39151895      -1.69184928       1.38640949
H        4.12983831      -1.98489923      -1.12398952
H        2.49358895      -2.63424900      -0.92179964
H        3.81789859      -3.23762880       0.08738996
