11
Properties=species:S:1:pos:R:3 atomization_energy=-1026.2 smiles=O.C.S.O.O.C.C.H.H.H.H pbc="F F F"
O        0.95329960      -0.17608993       0.01195999
C        2.36799915       0.06972997       0.01769999
S        2.87570881       1.80513933      -0.01730999
O        2.72639886       2.41940912      -1.31644951
O        2.70596886       2.47717910       1.25033948
C        4.66874798       1.72222934      -0.00118000
C        5.86842767       1.67094931       0.00951999
H        0.82970965      -1.14003956       0.03266999
H        2.80100892      -0.40836985      -0.86538967
H        2.78671890      -0.36799984       0.92818961
H        6.93417750       1.64702932       0.01853999
