16
Properties=species:S:1:pos:R:3 atomization_energy=-1683.09 smiles=C.C.C.N.C.C.C.H.H.H.H.H.H.H.H.H pbc="F F F"
C        0.93635966       0.07456997      -0.00966000
C        2.42252894       0.02562999      -0.00172000
C        3.27438867       1.11337950       0.00859000
N        4.56293842       0.65562972       0.01316999
C        4.55801796      -0.71178970       0.00589000
C        3.24604884      -1.14593957      -0.00346000
C        2.80265891      -2.56546905      -0.01368999
H        0.57191977       1.10700952      -0.00220000
H        0.53271979      -0.43299984       0.87224967
H        0.54292981      -0.41676983      -0.90526967
H        3.06887873       2.17547923       0.01300000
H        5.39046786       1.23754957       0.02066999
H        5.48776780      -1.26505947       0.00789000
H        1.71197939      -2.65052890      -0.00874999
H        3.18573864      -3.08995874       0.86773969
H        3.17678870      -3.07401873      -0.90818965
