18
Properties=species:S:1:pos:R:3 atomization_energy=-1762.56 smiles=C.C.C.N.C.C.C.H.H.H.H.H.H.H.H.H.H.H pbc="F F F"
C        0.84324968       0.10025996       0.17553993
C        2.35479919       0.02439999      -0.02342999
C        3.14988867       0.97728962       0.92017961
N        4.10565842      -0.11790995       1.19563949
C        3.07600886      -1.09695955       0.78132967
C        2.74728886       0.13772994      -1.47292946
C        2.51269901      -0.85685967      -2.33835906
H        0.57595978       0.05978998       1.23777956
H        0.33252986      -0.73444974      -0.31761989
H        0.43850984       1.03499961      -0.22903991
H        2.60654908       1.30272950       1.81633931
H        3.59862853       1.86600933       0.46412982
H        4.90651821      -0.10818996       0.56234979
H        3.46671858      -1.94773930       0.21404991
H        2.50244907      -1.49687936       1.62703939
H        3.21909885       1.05619959      -1.81153933
H        2.03648924      -1.78492924      -2.03808915
H        2.79539884      -0.75819973      -3.38218861
