12
Properties=species:S:1:pos:R:3 atomization_energy=-1110.11 smiles=C.N.S.O.O.C.C.H.H.H.H.H pbc="F F F"
C        0.98294960      -0.03472999       0.12019995
N        2.40021908       0.10575996      -0.24074990
S        2.98229884       1.67807931      -0.14323994
O        2.74466890       2.35842898      -1.39019950
O        2.79403877       2.24064907       1.16797957
C        4.76148830       1.62367935      -0.18663992
C        5.96380787       1.58094932      -0.21685991
H        0.70077973      -1.08814953       0.03359999
H        0.35245986       0.54063978      -0.56342977
H        0.80877965       0.28078990       1.15212950
H        2.60032886      -0.26840990      -1.16949948
H        7.02699705       1.55249935      -0.23867990
