20
Properties=species:S:1:pos:R:3 atomization_energy=-1917.42 smiles=C.C.C.N.C.C.C.H.H.H.H.H.H.H.H.H.H.H.H.H pbc="F F F"
C        0.92538962       0.11368995      -0.26455989
C        2.40692907       0.14194994       0.02625999
C        2.72331890       0.02953999       1.49800942
N        3.30331870      -0.55659979      -0.90102962
C        3.36923873       0.90797965      -0.91068962
C        2.83089882       1.63819937      -2.11727928
C        4.62484840       1.53400940      -0.35086986
H        0.69508972      -0.02066999      -1.32593944
H        0.45991983       1.04608957       0.07069997
H        0.44674981      -0.71615970       0.26909990
H        3.78075845      -0.16996994       1.69740928
H        2.15686904      -0.79205968       1.95005923
H        2.44653902       0.95584960       2.01253922
H        2.79755880      -0.91207965      -1.71331927
H        2.04141917       1.08995963      -2.63836906
H        3.63009852       1.81188932      -2.84680881
H        2.42861896       2.61180893      -1.81630928
H        5.15261789       0.88293968       0.35256985
H        4.38122812       2.46988900       0.16317994
H        5.33089800       1.76395925      -1.15706952
