18
Properties=species:S:1:pos:R:3 atomization_energy=-1768.47 smiles=C.C.C.C.N.C.C.H.H.H.H.H.H.H.H.H.H.H pbc="F F F"
C        0.88144966       0.09330996       0.18834992
C        2.39169911       0.07692997      -0.01443000
C        3.16210883       1.06168957       0.90780964
C        4.09689848      -0.11926995       1.20046949
N        3.03875871      -1.03163956       0.73001968
C        2.81117888       0.11106996      -1.45017940
C        2.55584892      -0.90109965      -2.29104922
H        0.61522978       0.05957997       1.25166952
H        0.39561983      -0.76293971      -0.29333988
H        0.44208982       1.00713959      -0.22790991
H        2.60217895       1.40420944       1.78701930
H        3.63175861       1.93102929       0.43805984
H        5.00324788      -0.13788995       0.58416976
H        4.37969848      -0.24814991       2.24867901
H        3.37487858      -1.79753924       0.14983994
H        3.32345877       0.99728958      -1.81453930
H        2.03209919      -1.79718926      -1.97221921
H        2.86284875      -0.84647965      -3.33106858
