14
Properties=species:S:1:pos:R:3 atomization_energy=-1446.57 smiles=C.C.C.N.S.C.C.H.H.H.H.H.H.H pbc="F F F"
C        0.92989966      -0.16077994       0.01309999
C        2.44197914       0.00356000       0.00593000
C        2.85699896       1.44157945      -0.00015000
N        3.02884891       2.06348919       1.16722951
S        3.47987866       3.63270864       0.88461964
C        3.45834875       3.51843866      -0.82038966
C        3.09292868       2.23623908      -1.16961959
H        0.66362975      -1.22244956       0.01344000
H        0.47717982       0.30344988      -0.86957969
H        0.48552981       0.30201989       0.90070967
H        2.85587886      -0.49891980      -0.87655968
H        2.86709877      -0.50346981       0.88091964
H        3.70273864       4.35826850      -1.45424938
H        2.99814877       1.88685921      -2.18868903
