12
Properties=species:S:1:pos:R:3 atomization_energy=-1274.15 smiles=O.C.C.C.C.O.N.H.H.H.H.H pbc="F F F"
O        0.58386980       0.46925981       0.56474978
C        1.72549930       0.20547992       0.18841993
C        2.93815878       1.17278951       0.11469996
C        2.68126891       2.62497885      -0.35206986
C        3.51968871       3.00444873       0.87863964
O        4.17324837       3.94047833       1.26505947
N        3.37502872       1.75761930       1.40293946
H        1.95084928      -0.81875967      -0.15398995
H        3.79147850       0.70313972      -0.39382986
H        1.64740934       2.97882877      -0.30398987
H        3.13278869       2.89466898      -1.30878949
H        4.08466849       1.43168945       2.04440917
