15
Properties=species:S:1:pos:R:3 atomization_energy=-1548.39 smiles=C.C.C.C.N.C.N.H.H.H.H.H.H.H.H pbc="F F F"
C        0.97302964       0.05067998       0.03599999
C        2.44651908      -0.02490999       0.02580999
C        3.28989871      -1.06536956      -0.06430998
C        4.74119834      -0.68105973      -0.05613998
N        4.65306811       0.75094968       0.14814994
C        3.34622863       1.13891958       0.09629996
N        2.94611882       2.35723899       0.07545997
H        0.52491979      -0.94458963      -0.04468998
H        0.61143977       0.65138973      -0.80404970
H        0.61795975       0.50547981       0.96573960
H        2.96926895      -2.09421923      -0.14282995
H        5.27963791      -1.16003958       0.76598970
H        5.21765779      -0.91947965      -1.01135957
H        5.33058813       1.33237944      -0.32414987
H        3.76122852       2.96776884       0.15610993
