13
Properties=species:S:1:pos:R:3 atomization_energy=-1337.6 smiles=O.C.C.C.N.N.C.H.H.H.H.H.H pbc="F F F"
O        0.94213962      -0.15359993      -0.19491992
C        2.14898924       0.00184000      -0.05813998
C        2.80712896       1.32146951       0.21322991
C        4.26928842       1.24154952      -0.17813994
N        4.84167816       0.03812999       0.41598984
N        4.31973852      -1.17121950       0.09592996
C        3.03863885      -1.20786948      -0.10944996
H        2.30373921       2.10074919      -0.36735986
H        2.69745899       1.54381940       1.28013955
H        4.80050829       2.12675911       0.18558993
H        4.38291823       1.20805949      -1.26789947
H        5.85917771       0.02476999       0.30075987
H        2.53006899      -2.15337905      -0.35325985
