19
Properties=species:S:1:pos:R:3 atomization_energy=-1800.01 smiles=C.C.C.N.C.C.N.H.H.H.H.H.H.H.H.H.H.H.H pbc="F F F"
C        0.96831962       0.02882999       0.08386997
C        2.49380899       0.02316999      -0.05381998
C        3.02117879      -1.33206945      -0.59634979
N        2.71737902      -1.55557943      -2.01753917
C        3.18606869      -0.41593985      -2.81774883
C        2.67292886       0.94288962      -2.29590912
N        2.96042878       1.17136951      -0.86588966
H        0.61608979       0.99010962       0.47462983
H        0.64833974      -0.74853973       0.78675971
H        0.45787982      -0.15793993      -0.86646964
H        2.90468881       0.15939994       0.95405963
H        2.59304885      -2.15452917      -0.01210999
H        4.10888851      -1.37703942      -0.45409981
H        3.17609883      -2.40790912      -2.33513906
H        4.28308842      -0.41015985      -2.83197880
H        2.85257887      -0.55100977      -3.85172839
H        3.14232883       1.74727927      -2.87384888
H        1.59476937       1.03000957      -2.47410898
H        3.97388851       1.22657946      -0.76412970
