15
Properties=species:S:1:pos:R:3 atomization_energy=-1419.58 smiles=O.N.C.C.C.N.C.H.H.H.H.H.H.H.H pbc="F F F"
O        0.71165975       1.60291942      -0.46985982
N        2.03025918       1.41941946      -0.90010962
C        2.80871890       1.42111942       0.13266996
C        4.32764810       1.24362949      -0.02838999
C        5.10029801       2.33335911      -0.79708971
N        6.20168761       2.20397903       0.18470994
C        5.23093798       1.64959932       1.15299954
H        0.21503992       1.60337942      -1.30997948
H        2.41849896       1.55123933       1.15768950
H        4.56554803       0.23339991      -0.39372984
H        4.63025838       3.32386881      -0.79389968
H        5.37492778       2.08040914      -1.82566925
H        6.91459710       1.53204941      -0.10298996
H        5.61392788       0.82369968       1.75999929
H        4.80603788       2.40705902       1.82223931
