19
Properties=species:S:1:pos:R:3 atomization_energy=-1894.87 smiles=C.C.C.C.C.C.C.H.H.H.H.H.H.H.H.H.H.H.H pbc="F F F"
C       -1.72020930       0.71064973       0.30705989
C       -1.73082929      -0.72939971      -0.31816988
C       -0.25000991      -0.78276966       0.13725994
C        1.06137958      -1.15264956      -0.51810978
C        2.00251928      -0.03065999      -0.02404999
C        1.07938960       1.09728959       0.48788980
C       -0.24160990       0.74615967      -0.15880994
H       -2.38831913       1.43171948      -0.17010994
H       -1.86285922       0.74435974       1.39302940
H       -1.88096929      -0.76121969      -1.40351944
H       -2.40475902      -1.44237946       0.16296994
H       -0.19790992      -1.04669958       1.20880954
H        1.41800944      -2.14155909      -0.21568992
H        0.98496964      -1.13498952      -1.61119942
H        2.65642892      -0.37994984       0.78184966
H        2.64040891       0.31447988      -0.84458969
H        1.01271957       1.07132963       1.58188938
H        1.44367947       2.08468918       0.19056991
H       -0.19353992       1.00957963      -1.22961955
