12
Properties=species:S:1:pos:R:3 atomization_energy=-1280.22 smiles=C.C.C.C.C.O.H.H.H.H.H.H pbc="F F F"
C        3.08830875      -1.05745961      -0.12473995
C        2.51725889       0.15190995      -0.07158998
C        3.18281866       1.44171949      -0.02969999
C        2.47565905       2.58264902      -0.08298997
C        4.66784817       1.58336943       0.10638996
O        5.26356795       2.65406886       0.04706998
H        2.46628898      -1.94839927      -0.15849994
H        4.15918847      -1.22181948      -0.14838994
H        1.42708945       0.18375992      -0.07071998
H        1.39421939       2.58908902      -0.17194994
H        2.96071871       3.55515866      -0.04236998
H        5.22124796       0.64749973       0.27743989
