13
Properties=species:S:1:pos:R:3 atomization_energy=-1304.67 smiles=C.C.C.C.N.S.N.H.H.H.H.H.H pbc="F F F"
C        1.01539959       0.01948999       0.01752999
C        2.51042904      -0.00492000       0.07232998
C        3.27062868       1.10173958       0.01677999
C        4.68971822       0.71990972       0.01687999
N        5.71654797       1.48712940      -0.01458999
S        4.80727834      -1.03139960       0.03970999
N        3.15295879      -1.22512957       0.18834992
H        0.62645978       1.04215957      -0.02884999
H        0.59339978      -0.45957981       0.90706961
H        0.65825976      -0.51698981      -0.86744963
H        2.93470891       2.12002918      -0.06200998
H        5.42552777       2.46737906      -0.02698999
H        2.68628904      -2.01793924      -0.24723991
