17
Properties=species:S:1:pos:R:3 atomization_energy=-1624.53 smiles=C.C.C.C.N.N.C.H.H.H.H.H.H.H.H.H.H pbc="F F F"
C        0.95663965       0.12655995       0.13011995
C        2.47172900       0.08835996       0.12707995
C        3.19195886       1.18365956       0.94070966
C        4.14209833       0.04666998       1.34637953
N        3.01573878      -0.90633962       1.10925956
N        3.37423867      -2.10108920       0.58314977
C        2.91579895      -3.08562874       1.27999951
H        0.54327979      -0.78249967      -0.32036989
H        0.59543976       0.97988964      -0.45385981
H        0.54895977       0.21831992       1.14325956
H        2.87688896      -0.02270999      -0.88912962
H        2.61399891       1.60020938       1.77430925
H        3.63683855       1.99935921       0.36582986
H        5.00001804      -0.08030997       0.67343976
H        4.50151846       0.08076997       2.37871919
H        3.13086870      -4.11941829       0.96715959
H        2.30675911      -2.96017872       2.19322922
