13
Properties=species:S:1:pos:R:3 atomization_energy=-1355.73 smiles=C.C.C.C.C.N.N.H.H.H.H.H.H pbc="F F F"
C        0.99999962       0.00000000       0.00000000
C        2.19015911       0.00000000       0.00000000
C        3.63415853       0.00000000       0.00000000
C        4.20418847      -1.19230947      -0.75600968
C        4.51006845      -0.53923978      -2.06362923
N        4.47313827       0.75207968      -2.06603913
N        4.16962842       1.11086956      -0.79178969
H       -0.06585998       0.00534000      -0.00512000
H        4.01801847       0.03492999       1.02454962
H        3.51006859      -2.02479924      -0.89846966
H        5.14476787      -1.55578937      -0.33056988
H        4.77319798      -1.14156957      -2.94397880
H        3.58555853       1.94663925      -0.74616971
