10
Properties=species:S:1:pos:R:3 atomization_energy=-1124.79 smiles=C.C.C.C.C.O.H.H.H.H pbc="F F F"
C        0.97100960       0.00843000       0.00000000
C        2.30780906       0.01681999      -0.00000000
C        3.04275892       1.23142952      -0.00000000
C        3.66830854       2.25681922      -0.00000000
C        4.42533815       3.48163867      -0.00000000
O        3.86701840       4.56892826      -0.00000000
H        0.42355984      -0.92830966       0.00000000
H        0.39199985       0.92752964       0.00000000
H        2.85970899      -0.91847965      -0.00000000
H        5.52060770       3.36474874      -0.00000000
