14
Properties=species:S:1:pos:R:3 atomization_energy=-1356.65 smiles=O.N.C.C.O.C.C.H.H.H.H.H.H.H pbc="F F F"
O        0.85221968       0.31330988       0.59306980
N        2.24594904       0.22756991       0.69634974
C        2.77740888       1.07333957      -0.12861995
C        4.26933838       1.20280948      -0.26894989
O        4.57335818       2.57961903      -0.07040997
C        5.87741773       2.95623882      -0.21918991
C        6.93974745       2.21139909      -0.54207977
H        0.55162982      -0.32283986       1.26902953
H        2.15852913       1.71195933      -0.78414966
H        4.53176844       0.89373965      -1.28638954
H        4.77091791       0.57639979       0.47630982
H        5.96388761       4.02203836      -0.03077999
H        6.88508746       1.14672949      -0.73407969
H        7.91946696       2.67384886      -0.62120978
