18
Properties=species:S:1:pos:R:3 atomization_energy=-1732.74 smiles=O.C.C.C.C.C.N.H.H.H.H.H.H.H.H.H.H.H pbc="F F F"
O        2.12853905      -0.26209990      -1.39792942
C        2.28139906       0.10683996      -0.02983999
C        3.02522871       1.44025937       0.07526997
C        2.23469910       2.61105900      -0.49661980
C        2.80611888       3.83082855       0.21401991
C        3.62027855       3.27679868       1.37499945
N        3.25732880       1.86253927       1.46283937
H        1.61923932      -1.09037963      -1.40815943
H        2.84592893      -0.68560970       0.47322980
H        1.28735950       0.16765993       0.42691982
H        3.98331838       1.36418945      -0.45688983
H        1.16535948       2.52161892      -0.26697990
H        2.33811909       2.68949894      -1.58374944
H        3.44335876       4.41406802      -0.45943983
H        1.99781923       4.48252801       0.56254976
H        4.69202806       3.37976876       1.16740955
H        3.40434860       3.79962854       2.31143910
H        4.01746839       1.32615947       1.87823932
