17
Properties=species:S:1:pos:R:3 atomization_energy=-1686.34 smiles=C.C.C.N.C.N.C.H.H.H.H.H.H.H.H.H.H pbc="F F F"
C        0.99135961       0.01077000       0.02077999
C        2.50989889      -0.03264999       0.02147999
C        3.14059885       1.13528955       0.80007971
N        4.41742806       0.58322976       1.18699954
C        4.34728805      -0.76943969       1.30493955
N        5.21088774      -1.49593942       1.91612925
C        3.07369877      -1.29688955       0.69584974
H        0.58156980      -0.83764969      -0.53694981
H        0.63165976       0.93201963      -0.44898981
H        0.58892980      -0.02851999       1.03867961
H        2.87092890      -0.00131000      -1.01560959
H        2.55783905       1.39458944       1.69083933
H        3.25858869       2.02556923       0.17588993
H        4.99650812       1.06078963       1.86771925
H        4.92720786      -2.48060904       1.88881932
H        3.28071865      -2.09449919      -0.02227999
H        2.42758894      -1.67452939       1.49465947
