15
Properties=species:S:1:pos:R:3 atomization_energy=-1426.54 smiles=O.N.C.C.C.C.N.H.H.H.H.H.H.H.H pbc="F F F"
O        1.43556942       0.48538980       1.79342927
N        2.71877896       0.41693983       1.23581945
C        2.81142894       1.30675949       0.30069988
C        4.07864837       1.47290940      -0.48879981
C        4.71417820       2.80316888      -0.22869991
C        5.40876793       3.54454864      -1.34282948
N        4.12805836       4.00673851      -0.81450965
H        1.45943945      -0.22213992       2.46390900
H        1.97134917       1.97698928       0.04611998
H        3.82299845       1.35345944      -1.54747934
H        4.78299802       0.67614974      -0.22287991
H        5.10778822       2.89118883       0.77798969
H        5.38187799       3.13686889      -2.34590906
H        6.27694743       4.14708843      -1.10743962
H        4.25896807       4.81268832      -0.19824992
