12
Properties=species:S:1:pos:R:3 atomization_energy=-1271.38 smiles=O.C.O.C.C.C.N.H.H.H.H.H pbc="F F F"
O        1.54639936       0.27230990       0.70448969
C        2.49092913      -0.01044000      -0.01568999
O        2.57197894      -1.18134959      -0.73128973
C        3.89684850      -1.30627943      -1.26366951
C        4.56784828      -0.01268999      -0.96644959
C        4.00819849       1.27564944      -1.47483948
N        3.63766846       0.75099971      -0.19978993
H        4.39503821      -2.14840913      -0.77454972
H        3.83387847      -1.49463941      -2.33934921
H        5.55674759      -0.07562997      -0.53942979
H        4.60680822       2.17399906      -1.41122942
H        3.22240868       1.27308954      -2.21926905
