10
Properties=species:S:1:pos:R:3 atomization_energy=-1148.58 smiles=O.C.C.N.C.C.O.H.H.H pbc="F F F"
O        2.67847888      -1.07690956       0.05515998
C        2.17827910       0.04613998       0.00830000
C        2.88699887       1.30024947      -0.00305000
N        2.32846918       2.49709913      -0.05379998
C        3.40015864       3.35544857      -0.04259998
C        4.57060828       2.64216892       0.01473000
O        4.25645839       1.31737948       0.04076999
H        1.08123956       0.15303993      -0.03008999
H        3.27270865       4.42875824      -0.07604997
H        5.62136761       2.89059888       0.04191998
