14
Properties=species:S:1:pos:R:3 atomization_energy=-1295.88 smiles=C.C.C.S.O.O.N.H.H.H.H.H.H.H pbc="F F F"
C        0.99554963      -0.04044999       0.08160997
C        2.50403900       0.07465997       0.01438999
C        3.14833886       1.16286948       0.89943962
S        4.40586826      -0.00505000       1.30015951
O        4.59427796      -0.18090994       2.71724882
O        5.45717768      -0.07106997       0.31428987
N        3.16807873      -1.03727961       0.77817969
H        0.64850975      -0.92530963      -0.46229982
H        0.52403979       0.83646967      -0.37378987
H        0.63875974      -0.11580995       1.11449960
H        2.86093886       0.09809996      -1.02439961
H        2.56846901       1.47111936       1.77478930
H        3.51344856       2.04363918       0.36602986
H        3.55175850      -1.79289925       0.20610991
