17
Properties=species:S:1:pos:R:3 atomization_energy=-1655.63 smiles=C.C.C.C.N.C.N.H.H.H.H.H.H.H.H.H.H pbc="F F F"
C        1.00625958       0.13254994       0.47173982
C        2.41976894       0.11281995      -0.09087996
C        3.40179854       1.05701961       0.62391975
C        3.91179836      -0.18551993       1.35946947
N        3.26066866      -0.96856962       0.35497986
C        2.74967894      -2.19500917       0.65380971
N        3.21626871      -3.06760875       1.47910943
H        0.38310985      -0.63621976       0.00264000
H        0.53352978       1.09918953       0.26587990
H        0.98534958      -0.02174999       1.55634942
H        2.43392902       0.20394992      -1.18279949
H        2.96439871       1.83206926       1.25966955
H        4.14198831       1.51644941      -0.04110999
H        4.99582783      -0.31915987       1.37353946
H        3.49333852      -0.32105989       2.36237897
H        1.85190931      -2.45398910       0.06755997
H        4.07351848      -2.70229895       1.90067926
