17
Properties=species:S:1:pos:R:3 atomization_energy=-1683.14 smiles=C.C.N.C.C.C.N.H.H.H.H.H.H.H.H.H.H pbc="F F F"
C        1.02241957      -0.04767998       0.11384996
C        2.53246891      -0.01546000       0.06351997
N        3.08752879       1.14193961      -0.04422998
C        4.54823810       1.21653958      -0.14759994
C        5.27434804      -0.03401998       0.32636988
C        4.59389795      -1.26842948      -0.23035991
N        3.19950886      -1.20969951       0.12958995
H        0.64915976      -1.07499954       0.09834996
H        0.62110973       0.48678980      -0.75090969
H        0.67907975       0.44515984       1.02788961
H        4.80995810       1.42925950      -1.19253947
H        4.89488826       2.07067925       0.44351981
H        6.32466731      -0.00256000       0.01122999
H        5.26439811      -0.06869998       1.42065942
H        5.04808816      -2.17357918       0.18427993
H        4.69122817      -1.31259944      -1.32070949
H        2.66471901      -2.06104915       0.00354000
