14
Properties=species:S:1:pos:R:3 atomization_energy=-1483.46 smiles=O.C.C.C.N.C.C.H.H.H.H.H.H.H pbc="F F F"
O        0.93789964      -0.08037997      -0.38193985
C        2.14089925      -0.01743999      -0.13114995
C        2.81584877       1.28827950       0.23334991
C        4.28041825       1.27343952      -0.17596994
N        4.91007810       0.03947999       0.27578990
C        4.25210819      -1.15658959       0.11955995
C        2.93854889      -1.26673950      -0.09535997
H        2.30087903       2.11168913      -0.27233990
H        2.71422892       1.42500948       1.31585943
H        4.80307804       2.13284913       0.25617989
H        4.37184846       1.34303943      -1.26667944
H        5.91689747      -0.01115999       0.12173995
H        4.88963825      -2.03542920       0.18083993
H        2.42496899      -2.20782910      -0.22993992
