15
Properties=species:S:1:pos:R:3 atomization_energy=-1555.23 smiles=C.C.C.C.C.N.N.H.H.H.H.H.H.H.H pbc="F F F"
C        0.94674965      -0.04313999      -0.00998000
C        2.41925898       0.08625997      -0.00012000
C        3.24957870       1.18451950       0.00751000
C        4.56119834       0.65655975       0.01489999
C        5.84517787       1.39604942       0.02525999
N        4.55298799      -0.68129976       0.01227000
N        3.24931880      -1.00001962       0.00292000
H        0.46611983       0.94038964      -0.00194000
H        0.60176974      -0.59530974       0.87008965
H        0.61222975      -0.57585980      -0.90590965
H        2.95489894       2.22443907       0.00774000
H        5.67790798       2.47767897       0.01221000
H        6.44569749       1.13586953      -0.85236969
H        6.42085750       1.15316949       0.92421963
H        2.99704886      -1.98264920      -0.00082000
