17
Properties=species:S:1:pos:R:3 atomization_energy=-1649.76 smiles=C.C.N.C.C.N.C.H.H.H.H.H.H.H.H.H.H pbc="F F F"
C        0.98351961       0.10402995       0.20240992
C        2.46411893      -0.11181996      -0.08908996
N        2.75677904      -1.49508945      -0.52104979
C        2.76552888      -1.52134943      -1.99345919
C        3.19933879      -0.14441995      -2.38210901
N        2.24807922       0.96028962      -2.46392893
C        2.98066878       0.74400969      -1.21395950
H        0.79335969       1.14915957       0.46817983
H        0.65740973      -0.52363978       1.03821960
H        0.35399987      -0.13579995      -0.66110972
H        3.03867872       0.09251996       0.82186965
H        2.04602913      -2.13368914      -0.17232993
H        3.46281855      -2.28398899      -2.35266901
H        1.76589930      -1.74369932      -2.38412917
H        4.12529837      -0.08828997      -2.93399885
H        2.64949889       1.74284934      -2.98215879
H        3.74386863       1.45438942      -0.93178963
