13
Properties=species:S:1:pos:R:3 atomization_energy=-1327.62 smiles=C.C.C.S.N.C.N.H.H.H.H.H.H pbc="F F F"
C        0.95429966       0.00790000      -0.00484000
C        2.44313910       0.02471999       0.00063000
C        3.21761867       1.17340948      -0.00256000
S        4.86589792       0.73619972       0.00345000
N        4.60692834      -0.89516967       0.01174999
C        3.30032883      -1.13012950       0.01510000
N        2.81290886      -2.37840907       0.03316999
H        0.54257976       1.02212957       0.00375000
H        0.57368975      -0.51720981       0.87696965
H        0.58162979      -0.49896979      -0.90089967
H        2.90546876       2.20744910      -0.00752000
H        1.83208932      -2.61060909      -0.05328998
H        3.45965860      -3.15648865      -0.02553999
