17
Properties=species:S:1:pos:R:3 atomization_energy=-1589.87 smiles=C.C.C.N.C.N.S.H.H.H.H.H.H.H.H.H.H pbc="F F F"
C        0.86242963      -0.25530990      -0.08993997
C        2.38842915      -0.22636990      -0.12379995
C        2.91599880      -0.97042962      -1.34694942
N        2.87137881       1.15352956      -0.13311994
C        2.97021873       2.01038923       0.90607966
N        2.86148894       1.51656940       2.15282922
S        3.18582872       3.63539849       0.65180974
H        0.47887981       0.25134989       0.80204966
H        0.49095979      -1.28522945      -0.07818997
H        0.43772982       0.25142990      -0.96350962
H        2.76929896      -0.72637975       0.77224972
H        2.57015888      -0.50570982      -2.27738901
H        2.58516905      -2.01438919      -1.34285951
H        4.01172836      -0.96221964      -1.36179950
H        2.88122881       1.62325934      -1.03234962
H        3.09720872       0.55418978       2.34087909
H        3.02027873       2.16627923       2.91413887
