13
Properties=species:S:1:pos:R:3 atomization_energy=-1324.32 smiles=C.C.C.N.C.N.S.H.H.H.H.H.H pbc="F F F"
C        0.91809965      -0.10062996       0.02698999
C        2.43235901       0.02685999      -0.02159999
C        2.86193885       1.45385940      -0.03202999
N        3.04075869       2.21388910       1.02932960
C        3.43672876       3.46711852       0.59269976
N        3.57260863       3.71707862      -0.70847974
S        3.18414870       2.29634918      -1.49724940
H        0.62693978      -1.15485960       0.05510998
H        0.45197982       0.35765988      -0.85132964
H        0.50837979       0.38904985       0.91799966
H        2.81795877      -0.50241979      -0.90156961
H        2.86436880      -0.46800982       0.85605966
H        3.64054857       4.25813841       1.30383951
