20
Properties=species:S:1:pos:R:3 atomization_energy=-1910.33 smiles=C.C.C.C.C.N.C.H.H.H.H.H.H.H.H.H.H.H.H.H pbc="F F F"
C        0.99022961      -0.07957997       0.09606996
C        2.50239910      -0.00422000       0.01539999
C        3.18364883       1.08981958       0.87661967
C        4.21653832      -0.00900000       1.23092953
C        5.49177785       0.02239999       0.39723983
N        3.16662884      -1.00529959       0.88599964
C        3.63426855      -2.15483904       0.12788995
H        0.61885975      -0.97490963      -0.41283983
H        0.53902978       0.79060972      -0.39218983
H        0.63367974      -0.10448996       1.13138952
H        2.84974897       0.01122000      -1.02751962
H        2.59321892       1.43228949       1.73554927
H        3.55685862       1.96244919       0.33343986
H        4.47328815      -0.02409999       2.29768906
H        5.29478788       0.09732996      -0.67748974
H        6.10332738      -0.86778965       0.57877977
H        6.09715738       0.89219967       0.67554976
H        2.78297884      -2.79799886      -0.12172995
H        4.31923840      -2.75585904       0.73605974
H        4.13725836      -1.90459923      -0.81243965
