16
Properties=species:S:1:pos:R:3 atomization_energy=-1630.52 smiles=C.C.C.C.C.N.C.H.H.H.H.H.H.H.H.H pbc="F F F"
C        0.99999962       0.00000000       0.00000000
C        2.19015911       0.00000000       0.00000000
C        3.63415853       0.00000000       0.00000000
C        4.23118842       1.12503960       0.83158970
C        5.61996768       0.59928976       1.13420957
N        5.40568798      -0.81788970       1.42224949
C        4.25265828      -1.25649952       0.61996976
H       -0.06579997       0.00091000       0.00343000
H        4.00358840       0.09796996      -1.02991961
H        3.66865852       1.28230947       1.76155932
H        4.25643820       2.07506918       0.28825988
H        6.27278750       0.71257975       0.26107990
H        6.07985754       1.11462955       1.98177916
H        6.23591736      -1.36495944       1.20045952
H        4.57211823      -1.95219925      -0.16553993
H        3.55427854      -1.79340933       1.27176947
