18
Properties=species:S:1:pos:R:3 atomization_energy=-1767.64 smiles=C.C.C.N.C.C.C.H.H.H.H.H.H.H.H.H.H.H pbc="F F F"
C        0.98815961       0.01092000      -0.00310000
C        2.50558908      -0.00014000       0.03452998
C        3.11137889      -1.07459959       0.93826962
N        3.94247857      -0.25404990       1.86596921
C        4.56008808       0.80261968       0.94509965
C        3.08095884       1.21753957       0.73805971
C        3.00568893       0.89272963       2.25244910
H        0.61070977      -0.89696968      -0.48259980
H        0.62591973       0.87453964      -0.57169980
H        0.54535976       0.07071998       0.99648963
H        2.89661875      -0.07817996      -0.98802959
H        3.73920858      -1.77264929       0.37436985
H        2.36267899      -1.65121941       1.49255945
H        5.10229799       0.41343985       0.07591997
H        5.20627815       1.52968936       1.45360947
H        2.85989900       2.22354909       0.38731984
H        3.44650861       1.63324938       2.93217878
H        2.03765918       0.59087975       2.66518885
