12
Properties=species:S:1:pos:R:3 atomization_energy=-1247.03 smiles=O.C.C.O.N.C.C.H.H.H.H.H pbc="F F F"
O        2.94124883      -0.24384990       2.17238918
C        3.15016876       0.95514963       2.09612913
C        3.91143854       1.57996939       0.94552963
O        3.55911850       2.67096900       0.52222978
N        5.01098789       0.83125965       0.54111977
C        6.22032732       1.48905936       0.13119994
C        5.37527802       0.75792973      -0.84521969
H        2.80609895       1.68823930       2.84404881
H        7.11526706       1.01957958       0.51305978
H        6.19483733       2.57122901       0.14046994
H        4.74814804       1.31941945      -1.52492938
H        5.66971781      -0.23284991      -1.15993954
