19
Properties=species:S:1:pos:R:3 atomization_energy=-1776.98 smiles=C.C.C.N.C.C.N.H.H.H.H.H.H.H.H.H.H.H.H pbc="F F F"
C        2.43159899      -0.47396982      -1.54328938
C        2.42343910       0.04202998      -0.11211995
C        3.32415874       1.26389951       0.03621999
N        2.74284884       2.50033907      -0.56324980
C        3.26477863       3.27415879       0.59324977
C        3.27304879       1.97094923       1.41728941
N        4.54782831       1.81942923       2.12576921
H        1.81072923      -1.37114950      -1.62651933
H        3.44708872      -0.72987971      -1.86172929
H        2.04058925       0.27569990      -2.23798900
H        2.78279893      -0.75428973       0.55075977
H        1.39346946       0.26697990       0.19132992
H        4.34023842       1.06617955      -0.33510988
H        1.72298936       2.49585893      -0.60502973
H        4.24083858       3.73163864       0.38877986
H        2.58867898       4.05427847       0.95656962
H        2.37465918       1.79771928       2.01805922
H        5.36868814       2.03567926       1.55851934
H        4.70164793       0.87914966       2.48772907
