12
Properties=species:S:1:pos:R:3 atomization_energy=-1246.78 smiles=C.C.C.O.S.C.N.H.H.H.H.H pbc="F F F"
C        0.96648959      -0.06900997      -0.00616000
C        2.44416912       0.07650997      -0.00306000
C        3.15998874       1.26071950      -0.00378000
O        2.71372905       2.51205910      -0.00711000
S        4.83718818       0.92925963       0.00040000
C        4.49039823      -0.74800971       0.00262000
N        3.21842866      -1.07631961       0.00051000
H        0.46240980       0.90241966       0.00424000
H        0.64082973      -0.63062975       0.87513968
H        0.64286977      -0.61099976      -0.90037962
H        3.51377861       3.06596885      -0.00641000
H        5.27763794      -1.49037943       0.00556000
