13
Properties=species:S:1:pos:R:3 atomization_energy=-1304.85 smiles=O.N.C.C.C.C.N.H.H.H.H.H.H pbc="F F F"
O        1.21963947       0.03366999      -0.01591999
N        2.54707889       0.02065999       0.45568981
C        3.26058867      -1.19754951       0.05349998
C        4.50709802      -0.63211977      -0.57244979
C        4.54960826       0.70573974      -0.60067979
C        3.29120882       1.11038963       0.04073999
N        2.96472876       2.35070916       0.17632994
H        1.01114957       0.97928960      -0.13529994
H        2.69712893      -1.79259935      -0.67262971
H        3.49905861      -1.80488927       0.93103963
H        5.28882782      -1.26624947      -0.96587964
H        5.29823775       1.37448949      -0.98386960
H        2.10687919       2.40908902       0.72853970
