11
Properties=species:S:1:pos:R:3 atomization_energy=-1214.49 smiles=C.C.C.C.N.N.C.H.H.H.H pbc="F F F"
C        0.99999962       0.00000000       0.00000000
C        2.19015911       0.00000000       0.00000000
C        3.63415853       0.00000000       0.00000000
C        4.21682825       1.11181959      -0.79978966
N        4.95862814       0.71304971      -1.78254925
N        4.95856809      -0.71605971      -1.78122930
C        4.21677829      -1.11313953      -0.79777971
H       -0.06659997      -0.00001000      -0.00641000
H        4.05205846       0.00089000       1.00933960
H        4.03980854       2.16526915      -0.54494979
H        4.03967833      -2.16608923      -0.54102976
