10
Properties=species:S:1:pos:R:3 atomization_energy=-1176.14 smiles=O.C.N.C.O.C.C.H.H.H pbc="F F F"
O        1.16047953      -0.07476997      -0.40424985
C        2.33446912      -0.04091998      -0.09341996
N        3.15877881      -1.07986953       0.15235995
C        4.39578814      -0.64604977       0.47018980
O        5.37342793      -1.31158948       0.74771971
C        4.36140851       0.81908965       0.42295983
C        3.12247869       1.18281955       0.08420997
H        2.88756889      -2.04710923       0.10556996
H        5.21276811       1.44142944       0.63313975
H        2.72266889       2.17237909      -0.04769998
