13
Properties=species:S:1:pos:R:3 atomization_energy=-1318.58 smiles=C.C.C.N.S.N.C.H.H.H.H.H.H pbc="F F F"
C        0.95255964      -0.12057995       0.00709000
C        2.46277906       0.06220998       0.00551000
C        2.86041880       1.50065940      -0.00207000
N        3.02183889       2.13282919      -1.17158954
S        3.45641867       3.69919843      -0.76612968
N        3.44360857       3.58354871       0.90498965
C        3.09855870       2.31876907       1.15017949
H        0.69927975      -1.18510958       0.01676999
H        0.49902982       0.32956985      -0.88204964
H        0.49902982       0.34561986       0.88790966
H        2.88950881      -0.44765981      -0.86753965
H        2.88665898      -0.42880985       0.89023963
H        3.02387873       2.00769926       2.18284907
