16
Properties=species:S:1:pos:R:3 atomization_energy=-1555.31 smiles=O.C.C.C.N.C.O.H.H.H.H.H.H.H.H.H pbc="F F F"
O        2.45718891      -0.87498967      -0.99723962
C        2.07381913      -0.05653998       0.09754996
C        2.76852884       1.30020947       0.04080998
C        4.28782821       1.23882951      -0.09724996
N        4.94952807       0.71802972       1.08325960
C        5.18450802      -0.62114972       1.25666946
O        4.83205828      -1.50045943       0.48505982
H        3.29582875      -1.31212948      -0.73010970
H        2.28667909      -0.58529976       1.03196961
H        0.98947961       0.08554997       0.04616998
H        2.49434898       1.87903921       0.93119961
H        2.38332903       1.84386928      -0.83053969
H        4.67775822       2.25102923      -0.24704990
H        4.58178807       0.64394974      -0.96892963
H        5.27269779       1.36574949       1.79046929
H        5.72156785      -0.82966965       2.19619916
