12
Properties=species:S:1:pos:R:3 atomization_energy=-1295.96 smiles=O.C.N.C.C.C.O.H.H.H.H.H pbc="F F F"
O        0.93021962      -0.05751998       0.00462000
C        2.15688923      -0.01569999      -0.00229000
N        2.90047891      -1.16615950       0.01150000
C        4.25630850      -1.22528955       0.00633000
C        4.95428805      -0.09371996      -0.01528999
C        4.27031844       1.22733948      -0.03432999
O        2.83255891       1.16248959      -0.02310999
H        2.35166903      -2.01654915       0.02730999
H        4.71409796      -2.20899917       0.02021999
H        6.03891781      -0.11298995      -0.02001999
H        4.57593802       1.81483932       0.83732967
H        4.56360810       1.78307927      -0.93079960
