20
Properties=species:S:1:pos:R:3 atomization_energy=-1920.36 smiles=C.C.C.C.C.N.C.H.H.H.H.H.H.H.H.H.H.H.H.H pbc="F F F"
C        0.99066961      -0.01156999       0.11614995
C        2.50319899       0.00448000       0.01987999
C        3.24258862       1.06753961       0.87582968
C        4.28849840      -0.01017000       1.25497947
C        4.79783812      -0.03545999       2.67678902
N        5.38217777       0.02755999       0.27487989
C        3.26240873      -1.08672953       0.82136966
H        0.58191979      -0.88205968      -0.40669986
H        0.56695976       0.88652966      -0.34437987
H        0.65159973      -0.05103998       1.15630950
H        2.81555885       0.03446999      -1.03356958
H        2.65549907       1.42546949       1.73151929
H        3.60375868       1.94451930       0.32880987
H        3.97032837      -0.05757998       3.39410874
H        5.40153763       0.85165969       2.89842897
H        5.41653771      -0.92057962       2.86189898
H        5.09117775       0.07060998      -0.70076970
H        6.01968764      -0.76517971       0.34098986
H        3.63961848      -1.92786922       0.23072990
H        2.68323886      -1.49827941       1.65806932
