17
Properties=species:S:1:pos:R:3 atomization_energy=-1649.12 smiles=C.C.C.C.N.C.N.H.H.H.H.H.H.H.H.H.H pbc="F F F"
C        0.90753965       0.05464998      -0.25722991
C        2.39531905       0.10918996      -0.25069991
C        3.24772861      -0.75658973      -1.13342962
C        2.67779885      -1.74432926      -2.09043918
N        3.08551872       0.67733973      -1.41998948
C        4.16522827       1.48485943      -1.16993955
N        4.49668834       2.51755891      -1.86563928
H        0.49862981       0.95507961       0.21326992
H        0.56026976      -0.81228971       0.31355988
H        0.49120982      -0.00865000      -1.26738950
H        2.78938881       0.40022983       0.71602975
H        4.22323822      -1.05725958      -0.76970969
H        1.81131930      -1.35473952      -2.63537894
H        2.37031908      -2.65087889      -1.55842938
H        3.43386858      -2.02735914      -2.83102877
H        4.77581819       1.19643950      -0.29555989
H        3.80437842       2.60268892      -2.61896908
