12
Properties=species:S:1:pos:R:3 atomization_energy=-1243.86 smiles=C.C.C.C.C.O.H.H.H.H.H.H pbc="F F F"
C        1.02086963      -0.11291996       0.16344994
C        2.21289920      -0.00214000       0.06128998
C        3.64407869       0.13313995      -0.07184997
C        4.32496834       1.14785955       0.85331965
C        5.21254808      -0.02695999       1.25335951
O        4.32375816      -0.96461962       0.59794976
H       -0.03557998      -0.21952991       0.25385990
H        3.97830834       0.19671993      -1.11490951
H        3.71049858       1.54151940       1.66882936
H        4.83928808       1.96951926       0.34880986
H        6.20784752      -0.04251998       0.79888972
H        5.28720785      -0.21446991       2.32752900
