16
Properties=species:S:1:pos:R:3 atomization_energy=-1566.3 smiles=O.C.C.N.C.C.C.H.H.H.H.H.H.H.H.H pbc="F F F"
O        1.03830956       0.09266996      -0.26541990
C        2.46313913       0.09455996      -0.02365999
C        2.98366874       1.04511961       1.07918962
N        3.91089855      -0.01814999       1.53442940
C        3.02698872      -1.02182962       0.89717962
C        3.77870851      -2.14728903       0.28731989
C        4.69391802      -2.00413924      -0.68231974
H        0.88869965      -0.69080974      -0.82204969
H        2.99935870       0.23457991      -0.97078963
H        2.23543919       1.32381948       1.83022926
H        3.47666876       1.95381922       0.72233973
H        4.83597800       0.03952999       1.11095952
H        2.27048901      -1.40791947       1.59543931
H        3.56157848      -3.13977877       0.67345976
H        4.96424807      -1.04241960      -1.10337961
H        5.21055820      -2.87480875      -1.07637954
