16
Properties=species:S:1:pos:R:3 atomization_energy=-1629.56 smiles=C.C.C.C.C.C.N.H.H.H.H.H.H.H.H.H pbc="F F F"
C        0.99999962       0.00000000       0.00000000
C        2.19015911       0.00000000       0.00000000
C        3.63415853       0.00000000       0.00000000
C        4.21354845       1.15055950       0.80840967
C        5.60569784       0.65508973       1.14512958
C        5.44637790      -0.85202967       1.26662948
N        4.14067846      -1.18185955       0.70054973
H       -0.06520997      -0.00675000       0.00858000
H        4.03268851       0.02175999      -1.02174963
H        3.64650864       1.32636953       1.73259927
H        4.23599836       2.09023921       0.24691990
H        6.29236739       0.89194967       0.32365988
H        5.99537754       1.11200959       2.05942918
H        6.25487753      -1.37425949       0.74463970
H        5.46883791      -1.16112953       2.31679912
H        4.19090828      -1.97626926       0.06757997
