10
Properties=species:S:1:pos:R:3 atomization_energy=-1144.85 smiles=C.C.C.C.S.N.C.H.H.H pbc="F F F"
C        0.91641962       0.01798999      -0.00394000
C        2.11684905       0.03803998      -0.00174000
C        3.54372857       0.06096998       0.00089000
C        4.29278854       1.21727954       0.00211000
S        5.95239746       0.79198972       0.00522000
N        5.70933786      -0.85136963       0.00499000
C        4.39721835      -1.07853962       0.00261000
H       -0.14869994      -0.00014000      -0.00588000
H        3.96886838       2.24793918       0.00138000
H        4.07654847      -2.11250921       0.00216000
