14
Properties=species:S:1:pos:R:3 atomization_energy=-1383.1 smiles=O.C.C.N.C.C.O.H.H.H.H.H.H.H pbc="F F F"
O        2.21087903       0.03258999      -1.33408949
C        2.22455917       0.11326996       0.09018996
C        3.21719880       1.13961955       0.53685979
N        4.31628815       1.53886942      -0.35056987
C        3.24062876       2.50857895      -0.09264997
C        3.62777859       3.67543867       0.72565972
O        2.78941884       4.28991852       1.37331943
H        1.56849942      -0.66095971      -1.56502936
H        2.49702899      -0.86964965       0.48733982
H        1.22124947       0.37482985       0.44030981
H        3.44890854       1.05922959       1.59237942
H        4.15880846       1.08483957      -1.25975951
H        2.56952906       2.71439899      -0.91806962
H        4.69116811       3.96826833       0.71388972
