15
Properties=species:S:1:pos:R:3 atomization_energy=-1512.81 smiles=C.C.C.C.N.N.C.H.H.H.H.H.H.H.H pbc="F F F"
C        0.92277963      -0.06573997       0.06520997
C        2.44745902       0.02683999       0.08646996
C        2.93880879       1.31688945      -0.53275979
C        3.89717854       1.11744960      -1.65554929
N        4.29891816      -0.01561999      -2.12727917
N        3.83857840      -1.20430946      -1.57680932
C        3.01106889      -1.18895952      -0.58423978
H        0.47240982       0.79544969       0.57035979
H        0.58045980      -0.97134961       0.57720977
H        0.54060982      -0.10361996      -0.96037964
H        2.76870900      -0.01738999       1.13385959
H        3.44566860       1.92823926       0.22345991
H        2.11515919       1.93215923      -0.91451963
H        4.29672843       2.03237915      -2.12480910
H        2.69663891      -2.16502918      -0.17783993
