11
Properties=species:S:1:pos:R:3 atomization_energy=-1197.01 smiles=C.O.C.C.S.C.C.H.H.H.H pbc="F F F"
C        2.12174907       0.06084997       0.53038977
O        1.28156951       0.45941983      -0.59645974
C        2.06448918       1.52420935      -0.78996968
C        2.29919901       2.62674895      -1.52625942
S        3.73244863       3.36838862      -0.83492969
C        3.90646837       2.12723905       0.40165985
C        2.90416875       1.24345954       0.23430990
H        2.64146895      -0.89526966       0.40852982
H        1.62171936       0.05375998       1.50458946
H        1.77993926       3.04799883      -2.37410910
H        4.71376791       2.16638925       1.11890959
