14
Properties=species:S:1:pos:R:3 atomization_energy=-1415.77 smiles=O.C.C.O.N.C.C.H.H.H.H.H.H.H pbc="F F F"
O        1.96701917      -1.42610940      -0.28571989
C        1.70266937      -0.26055991       0.48939982
C        2.85880893       0.74064971       0.46219983
O        2.69684885       1.94086920       0.66037973
N        4.07753837       0.12856995       0.21964991
C        5.26869784       0.79476971       0.14958993
C        6.42020749       0.16064995      -0.08551997
H        1.90440923      -1.15434952      -1.21982948
H        1.53356946      -0.56497978       1.52622939
H        0.79888972       0.21885991       0.10146996
H        4.05624842      -0.88068964       0.09210996
H        5.23658818       1.87330927       0.29522988
H        6.47348724      -0.91224966      -0.23143992
H        7.34982713       0.71880974      -0.13496994
