10
Properties=species:S:1:pos:R:3 atomization_energy=-996.47 smiles=C.C.S.O.O.C.N.H.H.H pbc="F F F"
C        0.95458965      -0.10464996       0.21482991
C        2.21669905       0.11788995      -0.17654994
S        2.92790883       1.68216935      -0.03243998
O        2.13577920       2.61126893       0.74443972
O        4.37198825       1.61118933       0.01725000
C        2.72767894       2.41848912      -1.67187928
N        2.57987893       2.85313879      -2.74363889
H        0.51507979      -1.09434956       0.12838995
H        0.32737987       0.67823974       0.63614974
H        2.83603881      -0.66976973      -0.58405974
