19
Properties=species:S:1:pos:R:3 atomization_energy=-1787.36 smiles=C.C.N.C.C.C.N.H.H.H.H.H.H.H.H.H.H.H.H pbc="F F F"
C        0.98963959       0.14493994      -0.18967993
C        2.48335894       0.06886998       0.00971000
N        2.91565891      -0.05763998       1.43059938
C        3.31662867      -0.64138972      -1.02963959
C        3.41480874       0.85944966      -0.93129966
C        2.86170897       1.66572934      -2.08103921
N        4.64008819       1.43106947      -0.31360987
H        0.69798970       0.04917998      -1.23997952
H        0.60575979       1.09885960       0.18687992
H        0.49033981      -0.66375977       0.35498987
H        3.75106840      -0.64112975       1.48649946
H        2.21095902      -0.56424978       1.96723920
H        2.81497899      -1.07163962      -1.88979924
H        4.17730838      -1.22482955      -0.72030973
H        2.08070916       1.13457961      -2.63344885
H        3.65732860       1.90105928      -2.79554898
H        2.44074902       2.60692909      -1.71491930
H        4.67159831       1.09715952       0.65371976
H        4.51882839       2.43869909      -0.20427993
