16
Properties=species:S:1:pos:R:3 atomization_energy=-1610.75 smiles=O.C.C.C.N.C.C.H.H.H.H.H.H.H.H.H pbc="F F F"
O        1.11139958       0.04292998       0.42045982
C        2.30065900       0.01718000       0.09963996
C        3.06033884      -1.28198951      -0.00183000
C        4.00621845      -1.23469948      -1.19123959
N        4.86132820      -0.04547998      -1.17839959
C        4.05230852       1.17506957      -1.21618947
C        3.10966884       1.28386951      -0.02826999
H        2.35044901      -2.10705923      -0.12120996
H        3.60988856      -1.42888946       0.93454962
H        4.64151841      -2.12715906      -1.18672955
H        3.43769872      -1.26259950      -2.12910907
H        5.45195796      -0.04812998      -0.34560986
H        4.72128839       2.04243921      -1.23039951
H        3.48489854       1.20493954      -2.15469925
H        3.66433861       1.42937948       0.90505967
H        2.43148897       2.13212922      -0.16588994
