15
Properties=species:S:1:pos:R:3 atomization_energy=-1515.17 smiles=C.C.C.N.N.C.C.H.H.H.H.H.H.H.H pbc="F F F"
C        0.83686967       0.03073999       0.10183995
C        2.17594907       0.00293000      -0.00493000
C        3.00295871       1.24898951      -0.15984994
N        4.30980828       1.05464959       0.47024983
N        5.08300777       0.01734999       0.05768998
C        4.43325832      -1.09150957      -0.14110995
C        2.94403886      -1.28980951       0.05209998
H        0.28392988       0.96503963       0.06933997
H        0.25944990      -0.88163967       0.22359990
H        2.50708893       2.10580918       0.30844989
H        3.13844874       1.47522946      -1.22348954
H        4.84409802       1.92451927       0.43025984
H        5.01072799      -1.98182925      -0.43821981
H        2.60101899      -1.96911920      -0.73649974
H        2.80385900      -1.78655930       1.01860962
