12
Properties=species:S:1:pos:R:3 atomization_energy=-1242.64 smiles=O.C.C.C.C.N.S.H.H.H.H.H pbc="F F F"
O        1.67099941      -0.30097987      -1.10014952
C        2.59554895      -0.13763995      -0.03174999
C        2.95172890       1.30138950       0.03957998
C        2.23584923       2.43188892      -0.30731988
C        2.99663882       3.60319850      -0.03892999
N        4.20649831       3.42903871       0.48509981
S        4.46751834       1.80075924       0.66431976
H        1.48950939      -1.25326955      -1.16771954
H        3.46887853      -0.76636971      -0.23165990
H        2.11826917      -0.46276982       0.89793964
H        1.23989953       2.41299914      -0.73026968
H        2.67769893       4.62175835      -0.22105991
