14
Properties=species:S:1:pos:R:3 atomization_energy=-1453.25 smiles=O.C.C.C.C.C.N.H.H.H.H.H.H.H pbc="F F F"
O        1.01624963      -0.05166998      -0.33756986
C        2.41617903      -0.01663000      -0.05530998
C        2.92738878       1.43281939       0.00000000
C        2.42109898       2.14311926       1.24299954
C        1.64779931       3.23846881       1.23293947
C        4.37138821       1.43281939       0.00000000
N        5.52239774       1.43281939       0.00000000
H        0.73535971      -0.98252959      -0.29134987
H        2.92070882      -0.57629980      -0.85225967
H        2.59275893      -0.54409981       0.89041966
H        2.55881911       1.96241917      -0.88810964
H        2.71052899       1.72262928       2.20550917
H        1.31851951       3.70054866       0.30625987
H        1.31769944       3.69593856       2.16262926
