20
Properties=species:S:1:pos:R:3 atomization_energy=-1910.9 smiles=C.C.C.C.C.N.C.H.H.H.H.H.H.H.H.H.H.H.H.H pbc="F F F"
C        3.28085869      -0.51633981       0.94363961
C        2.38062909       0.66295975       0.60291974
C        3.10993884       1.78051924      -0.13111995
C        3.11880878       1.72037937      -1.64378939
C        2.26100918       2.73279899      -0.94565965
N        4.32796806       2.33321907       0.50062982
C        4.06391828       3.14685868       1.67670928
H        2.68682903      -1.33899947       1.35211944
H        4.02579835      -0.24100991       1.69556928
H        3.81011846      -0.87959963       0.05810997
H        1.93184924       1.05910961       1.52230943
H        1.54798943       0.29343990      -0.00935000
H        2.62477900       0.89303962      -2.13876907
H        3.99530841       2.08237921      -2.16802915
H        2.56207898       3.77237853      -1.00375961
H        1.18721957       2.58866889      -0.95979959
H        4.98662783       1.59287941       0.73205972
H        3.45307856       4.02032831       1.42524945
H        5.01090815       3.51595850       2.08331915
H        3.56241849       2.57574902       2.46400892
