15
Properties=species:S:1:pos:R:3 atomization_energy=-1457.06 smiles=O.C.C.C.N.N.C.H.H.H.H.H.H.H.H pbc="F F F"
O        2.39863897      -0.35488985      -1.49641936
C        2.38258894       0.09049996      -0.14405993
C        3.29189869       1.29427944      -0.00384000
C        3.47061861       1.74337936       1.43814938
N        3.42368853       3.19391871       1.29846952
N        2.71123905       3.57438858       0.21048993
C        2.65034899       2.53129910      -0.55232978
H        1.83255929      -1.14539958      -1.54787941
H        2.73521885      -0.73325968       0.48509981
H        1.34712946       0.32561986       0.12485995
H        4.24398817       1.15366948      -0.52810980
H        4.41885828       1.40406940       1.86419923
H        2.65049888       1.40051947       2.07921914
H        3.13382880       3.67849843       2.14887923
H        2.19004909       2.53563895      -1.55102939
