16
Properties=species:S:1:pos:R:3 atomization_energy=-1568.18 smiles=O.C.C.C.C.C.N.H.H.H.H.H.H.H.H.H pbc="F F F"
O        2.50992892      -0.57984978       1.33015943
C        2.32041906      -0.03256999       0.03125999
C        2.84861878       1.38039946       0.00971000
C        2.02858926       2.40812916      -0.27952989
C        4.27503854       1.53170939       0.34844988
C        5.31538770       1.17977958      -0.68552971
N        5.05829798       2.56690910      -0.33190988
H        2.07495916      -1.44809943       1.33065942
H        1.25157956      -0.07346997      -0.20565993
H        2.85707894      -0.65342977      -0.69352975
H        0.97937961       2.26284918      -0.51172981
H        2.40285897       3.42787874      -0.28987988
H        4.51660838       1.35740943       1.39214940
H        4.99788786       0.88364968      -1.67803932
H        6.25371731       0.75549972      -0.35054987
H        5.77275779       2.92885886       0.30051987
