15
Properties=species:S:1:pos:R:3 atomization_energy=-1362.52 smiles=C.C.S.O.O.C.O.H.H.H.H.H.H.H.H pbc="F F F"
C        1.11625961      -0.13848994       0.02265999
C        2.62050905       0.03762999      -0.02709999
S        3.08316876       1.75991930       0.04009998
O        2.61791887       2.40350897      -1.17314958
O        2.72085892       2.27830901       1.34826949
C        4.87963786       1.68972932      -0.01454000
O        5.50430761       1.11484958       1.14118956
H        0.85559965      -1.20009957      -0.02549999
H        0.63117977       0.37096984      -0.81606969
H        0.70170969       0.27360988       0.94822964
H        3.02289894      -0.37393985      -0.95735961
H        3.09182877      -0.46448983       0.82264967
H        5.23892780       2.71712896      -0.12386995
H        5.16960786       1.11720951      -0.89935963
H        5.11832809       1.58285934       1.90871929
