14
Properties=species:S:1:pos:R:3 atomization_energy=-1423.2 smiles=C.C.C.C.C.O.H.H.H.H.H.H.H.H pbc="F F F"
C        0.79123966       0.11250996       0.04606998
C        2.27465904      -0.02067999       0.17724993
C        3.14529877       0.94647966      -0.15130993
C        4.63352808       0.81207970      -0.03033999
C        5.13603821       1.82660932       0.96646959
O        5.84006765       2.78717889       0.66258971
H        0.40774984      -0.65168976      -0.63676972
H        0.49586981       1.09378951      -0.33825986
H        0.31732986      -0.02867999       1.02216957
H        2.63538903      -0.97427962       0.55826979
H        2.77724890       1.89383920      -0.54410978
H        5.10391796       0.99692963      -1.00143961
H        4.93811815      -0.18197993       0.31246987
H        4.83677788       1.65662939       2.01499920
