20
Properties=species:S:1:pos:R:3 atomization_energy=-1910.29 smiles=C.C.C.C.N.C.C.H.H.H.H.H.H.H.H.H.H.H.H.H pbc="F F F"
C        2.29916899      -0.47834982      -1.55248938
C        2.44398896      -0.01667999      -0.11167995
C        3.25095870       1.27100944      -0.04235998
C        2.56358893       2.57591910      -0.50315979
N        3.21079867       3.27554863       0.63167976
C        3.30470879       1.97084918       1.34176944
C        4.58727829       1.82592928       2.13755914
H        1.73489926      -1.41485946      -1.59733937
H        3.27908859      -0.64656976      -2.01088923
H        1.77111928       0.26777989      -2.15480926
H        2.94844885      -0.79877970       0.46730982
H        1.44933939       0.12052995       0.32824988
H        4.24796845       1.14559955      -0.49106981
H        1.46892938       2.57386890      -0.44012984
H        2.85623893       2.94019888      -1.49217943
H        4.11834840       3.67290854       0.38620986
H        2.42383904       1.77788932       1.96991921
H        5.47442806       2.04027926       1.53195946
H        4.68345838       0.80458969       2.51983898
H        4.59036834       2.50438899       2.99700874
