12
Properties=species:S:1:pos:R:3 atomization_energy=-1246.47 smiles=C.C.C.O.C.O.H.H.H.H.H.H pbc="F F F"
C        0.93203962      -0.01176000       0.05478998
C        2.44211893       0.05839997      -0.01181999
C        3.13727867       1.03887958       0.93740961
O        3.79867852      -0.06040997       1.61738936
C        3.19716874      -0.98737959       0.82820966
O        3.29284871      -2.19272910       0.87440969
H        0.56188979      -0.87777964      -0.50288979
H        0.48639982       0.88587966      -0.38509986
H        0.57437975      -0.09627997       1.08623963
H        2.81514881       0.10799996      -1.04133962
H        2.48965889       1.59837935       1.61899936
H        3.85885851       1.71414931       0.46846982
