16
Properties=species:S:1:pos:R:3 atomization_energy=-1550.18 smiles=C.C.C.O.C.C.H.H.H.H.H.H.H.H.H.H pbc="F F F"
C        0.89510962       0.03405999       0.05046998
C        2.40708904      -0.02276999       0.00632000
C        3.16781883       0.95761964       0.90877967
O        4.02333837      -0.11154996       1.39387950
C        3.08843870      -1.09968952       0.87517968
C        3.81279847      -2.21199913       0.14725994
H        0.46356983      -0.81623970      -0.48756981
H        0.53066979       0.95104963      -0.42325982
H        0.51679980       0.01097999       1.07784962
H        2.77504883      -0.00131000      -1.02689958
H        2.60033896       1.40686939       1.73076936
H        3.73652857       1.72957937       0.38452984
H        2.46521910      -1.48661944       1.69307927
H        4.48425800      -1.82004933      -0.62322976
H        3.09652869      -2.88365876      -0.33564987
H        4.41055810      -2.80528896       0.84681966
