11
Properties=species:S:1:pos:R:3 atomization_energy=-1250.0 smiles=C.C.C.N.N.C.C.H.H.H.H pbc="F F F"
C        0.96358961       0.10855996       0.00172000
C        2.16109912       0.03105999      -0.00080000
C        3.58245863      -0.06181998      -0.00381000
N        4.30239832       1.06217960      -0.00879000
N        5.57188798       0.62121975      -0.01046000
C        5.67443792      -0.74071973      -0.00671000
C        4.38411832      -1.21739953      -0.00229000
H       -0.09841996       0.18862993       0.00391000
H        6.31908776       1.30798948      -0.01422999
H        6.63466736      -1.23595950      -0.00751000
H        4.06648827      -2.24986901       0.00148000
