16
Properties=species:S:1:pos:R:3 atomization_energy=-1682.44 smiles=C.C.C.C.C.C.N.H.H.H.H.H.H.H.H.H pbc="F F F"
C        2.39842903      -0.52785980      -1.40732939
C        2.50941896       0.02557999       0.00456000
C        2.95902884       1.44774945       0.00357000
C        2.23095905       2.62135891      -0.00589000
C        3.15035877       3.69680860      -0.00182000
C        4.41406802       3.15491865       0.01122999
N        4.29076837       1.79019930       0.01555999
H        2.06178924      -1.56909934      -1.38107949
H        3.36416863      -0.49596980      -1.92321926
H        1.68064931       0.04644998      -2.00303920
H        3.20856882      -0.58829979       0.58480980
H        1.53506944      -0.04986998       0.50163980
H        1.15090961       2.69447895      -0.01591999
H        2.91401875       4.75338796      -0.00775000
H        5.39032807       3.62137846       0.01802999
H        5.06171808       1.13581957       0.02403999
