16
Properties=species:S:1:pos:R:3 atomization_energy=-1571.0 smiles=O.C.C.C.C.C.N.H.H.H.H.H.H.H.H.H pbc="F F F"
O        1.91832921      -0.28070988       0.82477966
C        2.89458874      -0.09688996      -0.20088992
C        2.33159910      -0.49189982      -1.54088933
C        1.08955955      -0.92025966      -1.79718926
C        3.43173865       1.31535944      -0.15618994
C        2.57261911       2.49310902       0.23784990
N        3.59373860       1.97673922       1.14928952
H        2.25697920       0.24526991       1.57588932
H        3.72081843      -0.78030968       0.02849999
H        3.03225891      -0.43572984      -2.37276897
H        0.34857986      -1.01271957      -1.00800962
H        0.78847967      -1.19938951      -2.80305886
H        4.22626821       1.47834941      -0.87654964
H        1.54326945       2.32087906       0.52724979
H        2.76908902       3.45746862      -0.21614992
H        4.42034804       2.58175905       1.14333955
