14
Properties=species:S:1:pos:R:3 atomization_energy=-1432.81 smiles=O.C.C.N.C.O.C.H.H.H.H.H.H.H pbc="F F F"
O        0.98657963       0.01781999       0.07258997
C        2.40379915      -0.01440999      -0.00425000
C        3.02122875       1.12996952       0.79301967
N        4.25440845       0.58951975       1.27615953
C        4.24770855      -0.78626969       1.28898943
O        5.12315822      -1.48546944       1.76794936
C        2.97069892      -1.27077945       0.65490975
H        0.64731976      -0.75348971      -0.41493983
H        2.70980884       0.04306999      -1.05540961
H        2.40433914       1.42650947       1.64794932
H        3.21898883       2.01028918       0.17527994
H        4.97538798       1.10483960       1.76408932
H        3.18255876      -2.04484923      -0.08746997
H        2.30613913      -1.67192937       1.42615948
