14
Properties=species:S:1:pos:R:3 atomization_energy=-1440.43 smiles=N.C.C.C.S.C.C.H.H.H.H.H.H.H pbc="F F F"
N        2.12582927      -0.47182980      -1.34165942
C        2.46704901      -0.08609997       0.01923999
C        2.93216894       1.33438951       0.00211000
C        2.10205916       2.43605894      -0.10905996
S        2.95337890       3.91871855      -0.08641996
C        4.45300828       3.11551889       0.06906997
C        4.30420854       1.74676931       0.10395996
H        1.91580930      -1.46686947      -1.36440948
H        2.93893874      -0.33360987      -1.93924923
H        3.25114870      -0.74522971       0.40891983
H        1.59023940      -0.19183993       0.66763974
H        1.02553958       2.43572914      -0.21146991
H        5.37029801       3.68429852       0.12674995
H        5.14247821       1.06675953       0.19883991
