10
Properties=species:S:1:pos:R:3 atomization_energy=-1158.53 smiles=O.C.C.C.C.C.N.H.H.H pbc="F F F"
O        1.27576955      -0.32324987       0.77387972
C        2.18182915      -0.03077999      -0.00154000
C        2.96270885       1.25336947       0.08132997
C        4.40705826       1.00082960       0.02130999
C        5.59242774       0.80711969      -0.02321999
C        7.10904709       0.56489979      -0.08071997
N        8.25320684       0.38127984      -0.13028995
H        2.41938893      -0.68527971      -0.85824963
H        2.70198884       1.76641935       1.01251960
H        2.65140904       1.88607925      -0.75590969
