15
Properties=species:S:1:pos:R:3 atomization_energy=-1515.35 smiles=C.C.C.N.C.C.N.H.H.H.H.H.H.H.H pbc="F F F"
C        1.01707961      -0.06638997       0.00281000
C        2.50587900      -0.01853999      -0.04688998
C        3.24650884      -0.62531975      -1.21610948
N        3.14994873       0.82496967      -1.04910959
C        4.39176850       1.45677938      -0.57486977
C        5.25163772       1.90312927      -1.69030931
N        5.95695759       2.25191920      -2.54456895
H        0.63446972       0.75070971       0.62263974
H        0.68713971      -1.01147962       0.44556981
H        0.56415976       0.01933999      -0.99074960
H        2.94948896      -0.09448997       0.93917965
H        2.67406889      -1.03995962      -2.03807918
H        4.19594834      -1.11421951      -1.03263962
H        4.97776797       0.79986971       0.08259997
H        4.11960829       2.33226904       0.02738999
