14
Properties=species:S:1:pos:R:3 atomization_energy=-1445.43 smiles=O.N.C.C.C.C.C.H.H.H.H.H.H.H pbc="F F F"
O        1.04331960       0.09429996      -0.39275985
N        2.36096895      -0.01233999       0.06630997
C        2.93733896       1.14388950       0.10667996
C        4.35819835       1.26705946       0.58225980
C        4.54473827       2.77349901       0.69372972
C        3.32156881       3.35385863       0.05733997
C        2.38848895       2.45850911      -0.27500991
H        0.72734971      -0.82551969      -0.33133987
H        5.02963820       0.83080968      -0.16321994
H        4.49941806       0.76082971       1.54014937
H        5.45638788       3.09954884       0.18300993
H        4.60813801       3.08641879       1.74229926
H        3.20266880       4.42012801      -0.09384996
H        1.42445940       2.61888909      -0.72163970
