12
Properties=species:S:1:pos:R:3 atomization_energy=-1282.45 smiles=O.C.C.N.C.C.O.H.H.H.H.H pbc="F F F"
O        0.93453966      -0.00225000      -0.00867000
C        2.27519903      -0.02288999      -0.00174000
C        3.08541880       1.08353956       0.00486000
N        4.38731838       0.62949975       0.01066000
C        4.40043809      -0.74531973       0.00775999
C        3.09456883      -1.15955952       0.00006000
O        2.71280905      -2.44177904      -0.00470000
H        0.62139979       0.91817963      -0.00829000
H        2.87561898       2.14403926       0.00606000
H        5.21143782       1.21675949       0.01621999
H        5.32825811      -1.29892952       0.01140000
H        1.73782934      -2.45998903      -0.00982000
