12
Properties=species:S:1:pos:R:3 atomization_energy=-1269.84 smiles=C.C.C.S.C.O.N.H.H.H.H.H pbc="F F F"
C        0.98963959      -0.01714000      -0.00812999
C        2.47300907       0.09225996      -0.00094000
C        3.20163879       1.21664947       0.00363000
S        4.90973795       0.87599963       0.01181999
C        4.60505805      -0.86475965       0.00913000
O        5.46031769      -1.73101930       0.01297000
N        3.24233881      -1.04510957       0.00209000
H        0.51436979       0.96929961      -0.00491000
H        0.64088973      -0.56116977       0.87561968
H        0.64892976      -0.55176979      -0.90069964
H        2.81164897       2.22509916       0.00247000
H        2.86494891      -1.98201925      -0.00031000
