19
Properties=species:S:1:pos:R:3 atomization_energy=-1936.61 smiles=C.C.C.C.C.C.C.H.H.H.H.H.H.H.H.H.H.H.H pbc="F F F"
C       -1.24652953      -0.76806972      -0.52752978
C       -1.25006949       0.76824970      -0.52072980
C       -0.00509000       1.11185958       0.31453987
C        1.25184955       0.77043968      -0.50457981
C        1.25492951      -0.76601972      -0.50594981
C       -0.00266000      -1.11369958       0.30874988
C       -0.01162000      -0.00369000       1.35905943
H       -1.19802957      -1.17533957      -1.54225937
H       -2.15603912      -1.14856949      -0.04901998
H       -2.15935905       1.14015954      -0.03565998
H       -1.20715955       1.18445957      -1.53200942
H       -0.00848999       2.12972905       0.70855973
H        2.15371919       1.14786952      -0.01027999
H        1.21869954       1.18291959      -1.51771939
H        2.15697906      -1.14073952      -0.00957000
H        1.22687949      -1.17681949      -1.52007945
H       -0.00487000      -2.13370907       0.69758976
H       -0.91155966      -0.00630000       1.98289926
H        0.87887967      -0.00428000       1.99629918
