11
Properties=species:S:1:pos:R:3 atomization_energy=-1176.23 smiles=O.N.C.C.C.C.N.H.H.H.H pbc="F F F"
O        0.79810970       0.45110981       0.32261986
N        2.15293924       0.10616996       0.38485986
C        2.86331884       1.16836954       0.19314993
C        4.33623846       1.11700953       0.20240992
C        5.03792778       2.23854917       0.00000000
C        6.44392764       2.23854917       0.00000000
N        7.59493717       2.23854917       0.00000000
H        0.35609987      -0.40529983       0.47717982
H        2.39794910       2.15461926       0.01515999
H        4.79403801       0.14889995       0.37711985
H        4.54915810       3.19107873      -0.17189993
