14
Properties=species:S:1:pos:R:3 atomization_energy=-1446.59 smiles=C.C.C.C.N.C.S.H.H.H.H.H.H.H pbc="F F F"
C        0.90221962       0.07492997      -0.00763000
C        2.39039910       0.01496999       0.00022000
C        3.29327869       1.06038956       0.00399000
C        4.63712835       0.60508978       0.01107000
N        5.70154789       1.42392938       0.01579999
C        4.72743821      -0.76478967       0.01235000
S        3.18306872      -1.50402941       0.00509000
H        0.55252976       1.11264950       0.00011000
H        0.48818979      -0.42398985       0.87477967
H        0.49889980      -0.40742985      -0.90406965
H        2.99420887       2.10030912       0.00151000
H        5.61581784       2.43563906       0.02239999
H        6.65800750       1.08400953       0.02849999
H        5.61715771      -1.37742940       0.01700999
