13
Properties=species:S:1:pos:R:3 atomization_energy=-1311.57 smiles=C.N.C.C.N.C.S.H.H.H.H.H.H pbc="F F F"
C        2.84639877      -1.28111948       0.48408982
N        2.37757915      -0.01345000      -0.03590999
C        3.14519885       1.11146960      -0.00616000
C        2.70796883       2.41405894      -0.20146992
N        3.66133865       3.41219863      -0.13009994
C        4.82914789       2.86107890       0.10667996
S        4.84754789       1.15635959       0.26030989
H        2.07061919      -2.04050926       0.34249988
H        3.05668887      -1.21336954       1.55645944
H        3.74116844      -1.62684938      -0.04347998
H        1.36593949       0.09281996      -0.02958999
H        1.68074936       2.69139900      -0.40185982
H        5.73420762       3.44560855       0.20027992
