12
Properties=species:S:1:pos:R:3 atomization_energy=-1284.48 smiles=O.C.C.O.C.C.N.H.H.H.H.H pbc="F F F"
O        0.94119963      -0.09218997       0.00617000
C        2.26062917       0.02925998       0.00129000
C        3.07707875       1.13042952       0.00017000
O        2.60125895       2.38406912       0.00433000
C        4.41798824       0.70006973      -0.00583000
C        4.38490811      -0.68023971      -0.00823999
N        3.06822873      -1.07551959      -0.00387000
H        0.61001977       0.82756969       0.00913000
H        3.34353879       3.01257884       0.00262000
H        5.31215786       1.30770952      -0.00817000
H        5.17908794      -1.41531946      -0.01265000
H        2.72853888      -2.02699919      -0.00431000
