16
Properties=species:S:1:pos:R:3 atomization_energy=-1555.51 smiles=C.C.C.C.C.O.H.H.H.H.H.H.H.H.H.H pbc="F F F"
C        0.70513970      -0.12842995       0.12877994
C        2.13024910      -0.54671976      -0.09910996
C        2.45524899      -1.83090929      -0.32198988
C        3.17895875       0.55055980      -0.10931996
C        3.33478870       1.27363950       1.23059948
O        3.84138861       0.39969984       2.23488911
H        0.57389975       0.25658990       1.14552953
H        0.00735999      -0.96318960       0.00127000
H        0.41829984       0.65361977      -0.58153977
H        1.70440932      -2.61598904      -0.33411986
H        3.48199875      -2.13552914      -0.50577980
H        2.91363875       1.27899951      -0.88375963
H        4.15190846       0.12814995      -0.39058986
H        2.39016897       1.70102935       1.58177936
H        4.04946828       2.09553917       1.12346959
H        3.25996869      -0.38204983       2.25070902
