18
Properties=species:S:1:pos:R:3 atomization_energy=-1780.81 smiles=C.C.C.N.C.C.C.H.H.H.H.H.H.H.H.H.H.H pbc="F F F"
C        1.02057957       0.10427996       0.17331994
C        2.50621889      -0.09150996      -0.10594996
C        2.83649880      -1.52025936      -0.58898979
N        2.89370887      -1.46283937      -2.06053919
C        3.29328878      -0.08879996      -2.39602911
C        2.28010914       1.00313963      -2.51418903
C        3.01723889       0.79680969      -1.21310952
H        0.80256965       1.15428959       0.39269985
H        0.71393975      -0.49475980       1.03684957
H        0.39752985      -0.19851993      -0.67354972
H        3.06539884       0.11719995       0.81474968
H        2.11645920      -2.26751907      -0.24247990
H        3.82741854      -1.80387932      -0.21323991
H        3.55862873      -2.15362911      -2.40627906
H        4.23720854       0.03356998      -2.91869874
H        2.54167900       1.87076930      -3.10807890
H        1.23842957       0.72168972      -2.59909900
H        3.77399850       1.50512945      -0.90802967
