14
Properties=species:S:1:pos:R:3 atomization_energy=-1447.47 smiles=C.C.C.C.C.N.S.H.H.H.H.H.H.H pbc="F F F"
C        0.87665966      -0.04296998      -0.00345000
C        2.36143904       0.02678999      -0.00442000
C        3.21678876       1.11841956      -0.00132000
C        2.81280894       2.55079901       0.00406000
C        4.57138798       0.65192972      -0.00436000
N        4.76986822      -0.66183972      -0.00934000
S        3.29333874      -1.41076942      -0.01071999
H        0.43048983       0.95644964       0.00854000
H        0.51406980      -0.57930979       0.87971968
H        0.51243980      -0.55897978      -0.89799963
H        3.68622860       3.21036869       0.00954999
H        2.21394915       2.77591887       0.89213968
H        2.21896903       2.78378883      -0.88535966
H        5.45450801       1.27862947      -0.00301000
