16
Properties=species:S:1:pos:R:3 atomization_energy=-1560.54 smiles=O.N.C.C.C.C.C.H.H.H.H.H.H.H.H.H pbc="F F F"
O        0.44158982       0.87817964       0.89365966
N        1.81682933       0.66017976       1.03388960
C        2.43051901       1.22288950       0.04467999
C        3.92636848       1.15579954      -0.07307997
C        4.51164805       2.55649892       0.06569998
C        6.00714779       2.53991899      -0.07033997
C        6.68183716       3.18526880      -1.03026959
H        0.07579997       0.40787985       1.66635929
H        1.88594930       1.77363931      -0.74331969
H        4.16389849       0.73310973      -1.05571960
H        4.32621839       0.48510981       0.69600972
H        4.25324823       2.97337892       1.04669958
H        4.06149843       3.22400871      -0.67972975
H        6.56368759       1.97175921       0.67349976
H        6.17645752       3.77206842      -1.79103931
H        7.76625698       3.14006870      -1.07202960
