16
Properties=species:S:1:pos:R:3 atomization_energy=-1615.04 smiles=C.C.C.C.N.C.C.H.H.H.H.H.H.H.H.H pbc="F F F"
C        0.92505964      -0.02966999       0.17755992
C        2.43025911       0.05625998      -0.02318999
C        3.15849872       1.10848957       0.84835964
C        4.15797829      -0.01254000       1.16736956
N        3.14237880      -0.99530960       0.74305972
C        2.81143878       0.02359999      -1.42464941
C        3.12711881      -0.00432000      -2.58404895
H        0.65903972      -0.06383997       1.24015955
H        0.50668981      -0.92615961      -0.29486989
H        0.42300982       0.84297969      -0.25555990
H        2.59186895       1.45377941       1.72184933
H        3.57409865       1.98064922       0.33502986
H        5.05655790      -0.00586000       0.53956977
H        4.45962845      -0.09063997       2.21546919
H        3.50448853      -1.75856933       0.17400994
H        3.40522873      -0.02929999      -3.61259860
