13
Properties=species:S:1:pos:R:3 atomization_energy=-1405.32 smiles=C.C.C.C.N.N.C.H.H.H.H.H.H pbc="F F F"
C        0.98308964      -0.02476999       0.02139999
C        2.47705899      -0.01178999      -0.01071999
C        3.20323882       1.17297951      -0.07254997
C        4.58365834       1.09527953      -0.09713996
N        5.24932788      -0.07647997      -0.06327998
N        4.54737816      -1.23829950      -0.00206000
C        3.19800875      -1.19623953       0.02324999
H        0.57265980       0.98909961      -0.02691999
H        0.62847976      -0.48664982       0.94831965
H        0.59057979      -0.58574979      -0.83273970
H        2.71321884       2.13954928      -0.10130996
H        5.20554791       1.98145920      -0.14534995
H        2.71273890      -2.16475919       0.07270997
