13
Properties=species:S:1:pos:R:3 atomization_energy=-1318.24 smiles=O.N.C.N.C.C.C.H.H.H.H.H.H pbc="F F F"
O        1.07952952       0.08878997      -0.35776986
N        2.40511910       0.00057000       0.08346997
C        2.98452894       1.15784960       0.07975997
N        4.27781823       1.33823945       0.49479980
C        4.56565804       2.74255891       0.65409977
C        3.33259871       3.35175873       0.05215998
C        2.39510912       2.45907913      -0.29992989
H        0.79151969      -0.84165968      -0.32300987
H        4.63902840       0.66427976       1.15547958
H        5.46527802       3.02427894       0.10163996
H        4.66574826       3.01518870       1.70815935
H        3.21930879       4.41932812      -0.07169998
H        1.42090948       2.60878903      -0.72663971
