11
Properties=species:S:1:pos:R:3 atomization_energy=-1164.86 smiles=C.C.C.N.N.C.S.H.H.H.H pbc="F F F"
C        2.86213894      -1.25732956       0.43312982
C        2.35616910      -0.05954998       0.11152996
C        3.08882880       1.16215955       0.04167998
N        2.55523903       2.32969905      -0.28005987
N        3.46157859       3.36962858      -0.28108989
C        4.66595820       2.96160893       0.04163999
S        4.78832826       1.28881949       0.36984984
H        2.21354921      -2.12910907       0.45697982
H        3.90472855      -1.42652940       0.67931971
H        1.29643952       0.01522999      -0.12107996
H        5.51192801       3.63191859       0.09503996
