10
Properties=species:S:1:pos:R:3 atomization_energy=-1148.1 smiles=O.C.C.C.O.C.N.H.H.H pbc="F F F"
O        2.69233893      -1.13974950       0.12386995
C        2.19539902      -0.02250999       0.01931999
C        2.94115875       1.21930955       0.01265000
C        2.40921897       2.48393905      -0.10310996
O        3.43163873       3.38370866      -0.06726998
C        4.54233809       2.60958891       0.06982997
N        4.31471814       1.31769944       0.12302995
H        1.10246958       0.09091997      -0.07925997
H        1.41524944       2.89407878      -0.20996992
H        5.49145789       3.12446883       0.12105995
