15
Properties=species:S:1:pos:R:3 atomization_energy=-1546.91 smiles=C.N.C.C.C.C.N.H.H.H.H.H.H.H.H pbc="F F F"
C        0.99903962      -0.01295999      -0.00912000
N        2.44047903       0.02492999       0.00069000
C        3.23468863       1.13369961       0.00768999
C        4.53596824       0.67881972       0.01586999
C        5.78646795       1.46891941       0.02580999
C        4.40601815      -0.72859969       0.01304000
N        3.13246873      -1.12766952       0.00359000
H        0.60717979       1.00792957      -0.00180000
H        0.66086976      -0.54796981       0.88251967
H        0.67295977      -0.53078977      -0.91526962
H        2.82037888       2.13221906       0.00625000
H        5.57828760       2.54394898       0.01194000
H        6.39756732       1.23086948      -0.85105965
H        6.37188757       1.24852951       0.92452961
H        5.18855794      -1.47686936       0.01743999
