20
Properties=species:S:1:pos:R:3 atomization_energy=-1935.49 smiles=C.C.C.C.C.N.C.H.H.H.H.H.H.H.H.H.H.H.H.H pbc="F F F"
C        0.97363965       0.05572998       0.11819995
C        2.49972893       0.00965000      -0.01251999
C        2.98039878      -1.35392941      -0.52811979
C        2.69786903      -1.53088944      -2.01945915
C        3.20555876      -0.33996987      -2.82854886
N        2.66692892       0.92499964      -2.32614900
C        3.02415882       1.13273961      -0.92060964
H        0.65531973       1.01162963       0.54871980
H        0.61953972      -0.74065974       0.78153967
H        0.46845982      -0.05987998      -0.84534964
H        2.91567884       0.15874994       0.99203958
H        2.51824904      -2.16958906       0.04034998
H        4.06308836      -1.43165942      -0.36458987
H        3.17743871      -2.44946909      -2.37632910
H        1.62046932      -1.65627941      -2.18100907
H        4.30194816      -0.31275986      -2.81426893
H        2.90325884      -0.46222983      -3.87413843
H        3.03957879       1.69330927      -2.88403878
H        4.11467850       1.20818956      -0.82580968
H        2.61453890       2.09463923      -0.59173976
