13
Properties=species:S:1:pos:R:3 atomization_energy=-1249.26 smiles=C.C.C.S.C.O.O.H.H.H.H.H.H pbc="F F F"
C        0.99999962       0.00000000       0.00000000
C        2.44399905       0.00000000       0.00000000
C        3.63415853       0.00000000       0.00000000
S        5.42030805       0.00555000      -0.01224000
C        5.90700760      -0.83446968       1.46808937
O        5.63591754      -0.79817966      -1.19082955
O        5.63704798       1.43073942       0.07429997
H        0.60597976       1.02085959       0.01169000
H        0.60599976      -0.52054980       0.87825963
H        0.60597976      -0.50031980      -0.88992963
H        5.51972807      -0.28789990       2.32915906
H        6.99786742      -0.85505966       1.49905937
H        5.51539807      -1.85238924       1.44221948
