10
Properties=species:S:1:pos:R:3 atomization_energy=-1145.6 smiles=C.C.C.N.C.C.S.H.H.H pbc="F F F"
C        0.87023966       0.16801994       0.00201000
C        2.06822924       0.08160997      -0.00071000
C        3.49142862      -0.01663999      -0.00395000
N        4.24834846       1.05984957      -0.00940000
C        5.57961789       0.69022976      -0.01151000
C        5.82092782      -0.66622972      -0.00763000
S        4.33144821      -1.51557937      -0.00111000
H       -0.19130993       0.25221990       0.00439000
H        6.34165728       1.46023947      -0.01594000
H        6.76970748      -1.18260948      -0.00829000
