10
Properties=species:S:1:pos:R:3 atomization_energy=-1143.79 smiles=C.C.C.N.S.C.C.H.H.H pbc="F F F"
C        0.92791962       0.02047000      -0.00030000
C        2.12942928       0.02201999       0.00025000
C        3.55755859       0.02182999       0.00092000
N        4.16384827       1.20506949       0.00202000
S        5.80479780       0.95036960       0.00263000
C        5.71754771      -0.76054968       0.00142000
C        4.38965850      -1.13339959       0.00052000
H       -0.13637995       0.03081999      -0.00077000
H        6.60371742      -1.37861952       0.00142000
H        4.04078834      -2.15683927      -0.00034000
