15
Properties=species:S:1:pos:R:3 atomization_energy=-1544.16 smiles=C.C.C.C.N.C.N.H.H.H.H.H.H.H.H pbc="F F F"
C        1.03979958      -0.05787998       0.22153992
C        2.36445919       0.02062999       0.06733997
C        3.21183877       1.26230944      -0.05139998
C        4.50165826       0.76426968      -0.73267970
N        4.56500804      -0.63927973      -0.37182985
C        3.31458882      -1.11658953      -0.11221996
N        3.04818883      -2.37023909      -0.08780997
H        0.51694978      -1.00655961       0.26031989
H        0.43873984       0.84072965       0.31146988
H        3.44154854       1.64238933       0.95083963
H        2.73424888       2.05634923      -0.63239973
H        4.42623846       0.86615965      -1.82138934
H        5.38308767       1.31076953      -0.38563984
H        5.16369776      -1.26888949      -0.89245964
H        2.05892919      -2.52032900       0.11929995
