18
Properties=species:S:1:pos:R:3 atomization_energy=-1793.25 smiles=C.C.N.C.C.C.C.H.H.H.H.H.H.H.H.H.H.H pbc="F F F"
C        0.99767962       0.12009995      -0.08292997
C        2.50608894      -0.03352999       0.13011995
N        3.23357863       1.18293953      -0.26566990
C        3.51612857       1.22393957      -1.70269928
C        4.35465814       0.02264999      -2.16354926
C        3.86685842      -1.27075951      -1.58008937
C        3.01291873      -1.28284946      -0.54644977
H        0.61429975       0.99746962       0.44972981
H        0.46073981      -0.75521969       0.30004987
H        0.74083971       0.22870991      -1.14229956
H        2.67523895      -0.15674994       1.20710959
H        2.69419887       2.00423917      -0.00076000
H        4.06237830       2.14570919      -1.93214926
H        2.57899905       1.26875954      -2.27106912
H        5.40269785       0.16188993      -1.87234928
H        4.32369810      -0.03607999      -3.25727884
H        4.22874838      -2.19944918      -2.01012921
H        2.67229903      -2.23404910      -0.14535995
