10
Properties=species:S:1:pos:R:3 atomization_energy=-1115.27 smiles=O.C.C.C.S.N.C.H.H.H pbc="F F F"
O        2.70305897      -1.12198955       0.02747999
C        2.15581909      -0.02512999      -0.00437000
C        2.88209885       1.22511947      -0.00237000
C        2.29006916       2.47425912      -0.03775999
S        3.51598853       3.67096862      -0.02077999
N        4.78755815       2.60918897       0.03109999
C        4.30154846       1.37075940       0.03573998
H        1.05513961       0.05519998      -0.03679998
H        1.24402956       2.74432901      -0.07145998
H        5.01655785       0.55627977       0.06814998
