13
Properties=species:S:1:pos:R:3 atomization_energy=-1323.8 smiles=S.C.N.C.C.C.N.H.H.H.H.H.H pbc="F F F"
S        0.84367965      -0.03289999       0.01016000
C        2.50559891      -0.02236999       0.00290000
N        3.20177883       1.14476951      -0.00334000
C        4.64407805       1.24946957      -0.03372999
C        5.29585777      -0.09124996      -0.01093000
C        4.59094820      -1.22500946       0.00601000
N        3.22670866      -1.17823948       0.00661000
H        2.65145900       1.99370926      -0.00779999
H        4.95026790       1.84208933       0.83352969
H        4.91718829       1.79484926      -0.94204961
H        6.37912746      -0.12544995      -0.01192000
H        5.05161776      -2.20706908       0.01863999
H        2.69660888      -2.04270921       0.01606999
