14
Properties=species:S:1:pos:R:3 atomization_energy=-1437.87 smiles=O.C.C.N.C.C.C.H.H.H.H.H.H.H pbc="F F F"
O        1.01716963      -0.10283996       0.10028996
C        2.22773905      -0.01385999       0.04028999
C        3.25208864      -1.14086960       0.05663998
N        4.55385802      -0.36340984      -0.03849999
C        4.27743821       0.72034972      -1.11145951
C        3.21102879       1.19281956      -0.07459997
C        4.35991824       0.83970966       0.91987965
H        3.13159870      -1.79239925      -0.81217969
H        3.20740885      -1.69583927       0.99673963
H        3.90179848       0.33869986      -2.06676925
H        5.11785775       1.39827940      -1.30716953
H        2.80937900       2.20003914      -0.11704996
H        5.21017818       1.53178938       0.96643963
H        4.06520845       0.57317979       1.94045929
