16
Properties=species:S:1:pos:R:3 atomization_energy=-1549.18 smiles=C.C.C.C.C.O.H.H.H.H.H.H.H.H.H.H pbc="F F F"
C        2.69209896      -1.46699942      -0.86914965
C        1.97357927      -0.23674991      -0.33943986
C        2.93631878       0.85050969       0.05893998
C        3.71449854       0.66122977       1.32329942
C        3.44030858       1.81942923      -0.98776963
O        2.38873901       2.17133923      -0.07672997
H        1.96685919      -2.22537925      -1.18056951
H        3.33767864      -1.91065921      -0.10462996
H        3.31751864      -1.21638957      -1.73248938
H        1.35659945      -0.51462979       0.52236979
H        1.28563949       0.12819994      -1.11200959
H        4.27254854       1.56382940       1.59560938
H        4.43581847      -0.15433994       1.21236955
H        3.04552876       0.41924983       2.15545927
H        3.16990864       1.66016935      -2.02423919
H        4.40412819       2.29081909      -0.84497966
