13
Properties=species:S:1:pos:R:3 atomization_energy=-1409.0 smiles=C.C.C.C.S.C.C.H.H.H.H.H.H pbc="F F F"
C        2.45868902       0.38914984       0.98795964
C        2.08054918       0.00702000      -0.47400982
C        2.38942914       1.40284950      -0.81643967
C        2.47513900       2.39625898      -1.72544934
S        3.04802885       3.82412839      -0.89221967
C        3.13871873       3.00725894       0.65238972
C        2.73823900       1.73364934       0.46206982
H        3.32664874      -0.09060996       1.45321949
H        1.67094931       0.37620985       1.74984926
H        1.04754962      -0.28217990      -0.69521974
H        2.70954894      -0.71882974      -1.00147961
H        2.26036901       2.41167895      -2.78415900
H        3.46759871       3.52396850       1.54262941
