12
Properties=species:S:1:pos:R:3 atomization_energy=-1304.91 smiles=O.C.C.N.C.O.C.H.H.H.H.H pbc="F F F"
O        1.21603946      -0.06964997       0.66675973
C        2.35054918      -0.02462999       0.20436991
C        3.11678887       1.25113949      -0.04905998
N        4.34984820       0.72955969      -0.58264978
C        4.43299842      -0.64169977      -0.68006970
O        5.39734792      -1.25218944      -1.10554953
C        3.15170874      -1.23504947      -0.17907994
H        3.32202881       1.78657936       0.87875962
H        2.62890891       1.86994922      -0.80307968
H        5.13215787       1.30236943      -0.87826966
H        2.65241886      -1.78106933      -0.98133960
H        3.34390870      -1.85466931       0.69873969
