15
Properties=species:S:1:pos:R:3 atomization_energy=-1544.38 smiles=C.C.N.C.N.C.C.H.H.H.H.H.H.H.H pbc="F F F"
C        0.94219962       0.06893997      -0.16765993
C        2.42657911      -0.07800997       0.11477995
N        2.66727891      -1.23238951       0.96554959
C        3.38436876      -0.84903967       2.05953920
N        3.89939856      -1.64331929       2.92380896
C        3.53836854       0.60829976       2.11907916
C        2.97534888       1.02939962       0.97770963
H        0.57231978      -0.78955971      -0.73870972
H        0.74223971       0.97567962      -0.74840971
H        0.35534984       0.12387995       0.75679973
H        3.00041874      -0.15514994      -0.81493969
H        2.92800875      -2.09849915       0.51506979
H        3.63749865      -2.60200888       2.68097898
H        4.02135832       1.15505958       2.90686895
H        2.92927874       2.06865921       0.68362972
