14
Properties=species:S:1:pos:R:3 atomization_energy=-1275.55 smiles=C.N.C.S.O.O.C.H.H.H.H.H.H.H pbc="F F F"
C        1.04609959      -0.00545000       0.12259995
N        2.49838906       0.02849999       0.00118000
C        3.07014872       1.08286962       0.85979965
S        4.39084850      -0.00622000       1.32887947
O        4.54005803      -0.08009997       2.77103903
O        5.52787787       0.06303998       0.43138984
C        3.11134886      -1.08863956       0.74428971
H        0.64489977      -0.86515966      -0.42459982
H        0.61183977       0.89465965      -0.32535986
H        0.69801973      -0.07039997       1.16015957
H        2.47161898       1.39043947       1.72499930
H        3.41283854       1.97034918       0.32079986
H        3.48630857      -1.90044926       0.11501995
H        2.52674907      -1.50860935       1.57092937
