13
Properties=species:S:1:pos:R:3 atomization_energy=-1319.54 smiles=O.C.C.N.C.C.N.H.H.H.H.H.H pbc="F F F"
O        0.84067968      -0.03327998       0.25442989
C        2.27096920      -0.00642000      -0.00689000
C        3.07972873       1.04462958       0.79232967
N        3.80629842      -0.01520000       1.50092940
C        3.11122875      -1.06551958       0.74795968
C        2.51875900       0.02743999      -1.44111945
N        2.75796903       0.05488998      -2.57608891
H        0.77093968      -0.05472998       1.22527958
H        2.47587909       1.66955935       1.46048940
H        3.72086864       1.71096930       0.20413991
H        4.81822800       0.00306000       1.35143953
H        3.77160842      -1.68712930       0.13269995
H        2.52672888      -1.73571935       1.38888940
