12
Properties=species:S:1:pos:R:3 atomization_energy=-1262.99 smiles=O.N.C.C.C.C.C.H.H.H.H.H pbc="F F F"
O        1.04751959      -0.22564991       0.13795994
N        2.44697908      -0.14948995       0.11007996
C        2.86482879       1.06194959      -0.07373997
C        2.05009924       2.29499921      -0.24607991
C        2.58137904       3.51010870      -0.43187983
C        4.31268839       1.05850956      -0.09041997
C        5.51399763       1.05325956      -0.10390996
H        0.89699964      -1.17912958       0.28057990
H        0.97421963       2.16650911      -0.21423991
H        3.65164862       3.68374844      -0.47033981
H        1.93639928       4.37517822      -0.55193980
H        6.57899753       1.03695959      -0.11415995
