15
Properties=species:S:1:pos:R:3 atomization_energy=-1432.42 smiles=O.N.C.N.C.C.C.H.H.H.H.H.H.H.H pbc="F F F"
O        1.86734920      -0.33839987       1.44000944
N        2.57055907      -0.06394998       0.26240990
C        3.30232880       0.98568960       0.44400984
N        4.11988838       1.51989941      -0.50825981
C        5.20852794       2.39590900      -0.10492996
C        5.79002784       3.38167866      -1.07854959
C        4.98723797       3.86846855       0.09227996
H        1.34776950      -1.12610961       1.19354955
H        3.31791859       1.53373940       1.40378944
H        4.21726831       0.93483962      -1.33126943
H        5.91670772       1.90406921       0.55950980
H        5.34426802       3.46058870      -2.06325919
H        6.86215711       3.53901855      -1.06077954
H        5.51361762       4.35618828       0.90413967
H        3.99945850       4.26996820      -0.10333995
