12
Properties=species:S:1:pos:R:3 atomization_energy=-1230.84 smiles=O.N.C.C.C.C.O.H.H.H.H.H pbc="F F F"
O        1.18393952      -0.50332979       0.19748993
N        2.57894909      -0.41766983       0.10634996
C        2.99457879       0.81460970       0.08107997
C        2.14215914       2.04287916       0.13150995
C        2.57908888       3.29988876      -0.01337000
C        4.49796817       0.96239962      -0.03997998
O        5.13735791       1.74420928       0.64629977
H        1.03239959      -1.46667947       0.24296991
H        1.08242956       1.86940924       0.29002990
H        3.62171860       3.55566863      -0.17172993
H        1.87907920       4.12870837       0.03966998
H        4.95582828       0.28040989      -0.77344968
