12
Properties=species:S:1:pos:R:3 atomization_energy=-1270.7 smiles=O.C.O.C.C.N.C.H.H.H.H.H pbc="F F F"
O        1.25229946       0.21643991       0.52834980
C        2.28224917      -0.06266998      -0.06140997
O        2.57969902      -1.27794944      -0.61783977
C        3.89790854      -1.24665948      -1.20080950
C        4.45972837       0.11554996      -0.96683964
N        3.82183849       1.29527955      -1.54173944
C        3.43077854       0.85753964      -0.19361992
H        4.50355831      -2.01485915      -0.71053971
H        3.81924856      -1.47901948      -2.26722915
H        5.50265787       0.16154993      -0.69619973
H        4.42619809       2.11673929      -1.48200948
H        3.71700847       1.46372946       0.65287975
