13
Properties=species:S:1:pos:R:3 atomization_energy=-1375.77 smiles=C.C.C.O.C.C.S.H.H.H.H.H.H pbc="F F F"
C        0.86077963       0.04343998      -0.00325000
C        2.35055902       0.03103999      -0.00433000
C        3.23060869       1.08804960      -0.00204000
O        2.79997890       2.36224902       0.00193000
C        4.59040821       0.68590972      -0.00433000
C        4.71036800      -0.68724973      -0.00850000
S        3.18696875      -1.46622943      -0.00968000
H        0.46884980       1.06585959       0.00914000
H        0.46972981      -0.47262982       0.87999964
H        0.46908983      -0.45170982      -0.89804965
H        3.55608851       2.97312887       0.00304000
H        5.44393786       1.35153945      -0.00309000
H        5.61885792      -1.27404954      -0.01100000
