20
Properties=species:S:1:pos:R:3 atomization_energy=-1908.78 smiles=C.C.C.C.N.C.C.H.H.H.H.H.H.H.H.H.H.H.H.H pbc="F F F"
C        1.84203924      -0.10543996       1.38949941
C        1.98254927       0.35014986      -0.05390998
C        3.20763872       1.19086955      -0.25111989
C        3.17588864       2.37600915      -1.18619952
N        3.21598862       2.55981910       0.26301990
C        4.52774830       2.95655877       0.78153967
C        4.46506821       4.40315823       1.24869945
H        0.97579960      -0.76546970       1.49901938
H        1.70347936       0.75038969       2.05958916
H        2.73365893      -0.64870972       1.72162929
H        1.07773960       0.89376968      -0.34898987
H        2.05196914      -0.52833979      -0.70512973
H        4.12232843       0.61177978      -0.18574993
H        2.23951914       2.64109903      -1.66307936
H        4.06009849       2.60183906      -1.76922932
H        5.33722798       2.84949891       0.04773998
H        4.78586804       2.32322902       1.63954934
H        4.21093833       5.07703812       0.42454983
H        5.43609793       4.71100791       1.65064939
H        3.71976848       4.52985829       2.04051923
