14
Properties=species:S:1:pos:R:3 atomization_energy=-1376.46 smiles=O.C.C.N.O.C.C.H.H.H.H.H.H.H pbc="F F F"
O        2.21465921      -0.52744979       1.20324955
C        2.20256901       0.03871998      -0.09550996
C        2.80406894       1.41284939      -0.04574998
N        4.04984829       1.64583933      -0.31016987
O        4.25411827       3.03152891      -0.09425997
C        2.96559879       3.65522845      -0.05128998
C        2.02967920       2.58212897       0.43346984
H        3.15313870      -0.63250974       1.44822938
H        1.16879952       0.10294996      -0.44478983
H        2.77002895      -0.60306975      -0.77534967
H        2.71197888       3.99314845      -1.06199955
H        2.99212890       4.52009812       0.61717973
H        1.03234962       2.64769901      -0.00363000
H        1.96920928       2.54443900       1.52481937
