14
Properties=species:S:1:pos:R:3 atomization_energy=-1457.41 smiles=O.C.C.C.C.C.N.H.H.H.H.H.H.H pbc="F F F"
O        3.07813879      -0.91353964       0.48527982
C        2.25493910       0.01419999      -0.20226992
C        2.80192892       1.39473945       0.03553999
C        2.04250924       2.37333898       0.56165979
C        4.25647857       1.61902938      -0.32344987
C        4.49060817       1.43662946      -1.76530935
N        4.67209793       1.29227946      -2.90354877
H        2.70088892      -1.79498931       0.32136987
H        1.23129957      -0.08968996       0.17308994
H        2.25503902      -0.22954991      -1.26928956
H        1.00294963       2.20518921       0.83030969
H        2.43617906       3.36890867       0.74515969
H        4.89046792       0.93317966       0.24985991
H        4.57036806       2.63107896      -0.03963998
