15
Properties=species:S:1:pos:R:3 atomization_energy=-1422.13 smiles=C.C.C.C.S.O.O.H.H.H.H.H.H.H.H pbc="F F F"
C        0.92786966       0.04389998      -0.01459999
C        2.44201901       0.00251000       0.01330000
C        3.13885877       1.01397959       0.96373962
C        4.29114838       0.02724999       1.25513945
S        3.20363877      -1.32917950       0.92103962
O        2.44057896      -1.70101938       2.09466914
O        3.81283859      -2.29608903       0.03445999
H        0.53004981      -0.79944970      -0.58792974
H        0.57827978       0.96655961      -0.48872981
H        0.50049980       0.00113000       0.99232963
H        2.84796877       0.03984999      -1.00666962
H        2.55286889       1.26731948       1.85660923
H        3.44715862       1.95185923       0.49154981
H        5.12369820       0.07483997       0.54617977
H        4.67693815       0.04844998       2.27712911
