15
Properties=species:S:1:pos:R:3 atomization_energy=-1443.15 smiles=N.C.S.N.C.C.C.H.H.H.H.H.H.H.H pbc="F F F"
N        2.99863880      -1.22069951       0.57761975
C        2.56731889      -0.26890989      -0.27631988
S        0.99487963      -0.24045991      -0.80420968
N        3.46163865       0.67538972      -0.66628977
C        4.80737827       0.81619970      -0.21446991
C        5.91269767      -0.02208999      -0.79518966
C        5.84213778       1.44278937      -1.10901959
H        3.98611850      -1.37742940       0.71527969
H        2.36641905      -1.97398919       0.81603966
H        3.08433882       1.39271941      -1.27759946
H        4.87266797       1.06610953       0.84230968
H        5.66691794      -0.72128972      -1.58622935
H        6.69705727      -0.36054985      -0.12869995
H        6.57639751       2.09674923      -0.65290971
H        5.55808798       1.72859931      -2.11509914
