13
Properties=species:S:1:pos:R:3 atomization_energy=-1220.93 smiles=C.S.O.O.O.C.C.H.H.H.H.H.H pbc="F F F"
C        1.02414961      -1.20848958      -0.14140994
S        2.37117903      -0.05254998      -0.14454995
O        3.15223864      -0.25296991       1.05922959
O        2.98088881      -0.06071998      -1.45903938
O        1.46879943       1.30323947       0.02086999
C        2.06204914       2.54037899       0.05032998
C        1.35664941       3.66329851       0.18995992
H        0.36445985      -0.98443961      -0.98167961
H        0.48903980      -1.12512955       0.80620966
H        1.43876949      -2.21280912      -0.24950991
H        3.14102882       2.52180893      -0.04937998
H        0.27643990       3.64169844       0.28734988
H        1.85000925       4.62959828       0.20986992
