16
Properties=species:S:1:pos:R:3 atomization_energy=-1615.57 smiles=C.C.C.C.N.C.C.H.H.H.H.H.H.H.H.H pbc="F F F"
C        0.99013959      -0.05156998       0.08274997
C        2.49675899       0.07562997      -0.00518000
C        3.16740879       1.11468960       0.91680967
C        4.19179825       0.00621000       1.23106957
N        3.19535877      -0.98290961       0.76021970
C        5.38529809      -0.02412999       0.40781983
C        6.37315730      -0.05107998      -0.27680988
H        0.64039976      -0.92558966      -0.47697982
H        0.50773979       0.83223965      -0.34754987
H        0.64438975      -0.15051995       1.11758952
H        2.83775895       0.14671995      -1.04693960
H        2.56763909       1.41441939       1.78508934
H        3.54441869       2.01589927       0.42438982
H        4.41972832      -0.08649997       2.29889899
H        3.58365847      -1.73283936       0.19066992
H        7.24781717      -0.07552997      -0.88430965
