15
Properties=species:S:1:pos:R:3 atomization_energy=-1445.16 smiles=O.C.C.C.N.C.N.H.H.H.H.H.H.H.H pbc="F F F"
O        2.83547888      -0.96626962      -0.43070983
C        2.06132924       0.17946993      -0.10342996
C        2.98600886       1.32280952       0.13204994
C        3.35660879       2.25140924      -0.97804964
N        2.45059903       2.69312898       0.09657996
C        2.96171895       3.57261848       1.01681958
N        2.29627903       4.51200838       1.59446935
H        2.21337913      -1.70947929      -0.51630981
H        1.48707944      -0.03324998       0.80369966
H        1.36425947       0.37502985      -0.92524964
H        3.70657861       1.12005959       0.91439965
H        2.85811880       2.16588913      -1.93394927
H        4.33630811       2.70950881      -0.98189959
H        4.03081848       3.43240859       1.25888947
H        1.33701943       4.46902829       1.23163946
