9
Properties=species:S:1:pos:R:3 atomization_energy=-796.98 smiles=C.O.C.H.H.H.H.H.H pbc="F F F"
C        0.98269960      -0.00179000       0.00455000
O        2.40329903       0.02362999       0.00000000
C        2.90146881       1.35425946      -0.00455000
H        0.65649976      -1.04554958       0.00312000
H        0.58758980       0.48885980      -0.89019963
H        0.59361975       0.48471980       0.90443963
H        3.99423852       1.31333953      -0.00312000
H        2.57084900       1.89048925       0.89019963
H        2.57274906       1.88341930      -0.90443963
