18
Properties=species:S:1:pos:R:3 atomization_energy=-1790.23 smiles=C.C.C.N.C.C.C.H.H.H.H.H.H.H.H.H.H.H pbc="F F F"
C        2.34773897      -0.40612984      -1.56994944
C        2.46380907       0.14015995      -0.15248995
C        3.47873863       1.28423955      -0.03411999
N        3.59833860       1.68587938       1.38816950
C        3.14219888       3.08371884       1.49233941
C        2.89238892       3.53161868       0.10180996
C        3.07729878       2.52691889      -0.75407972
H        1.66705938      -1.26341945      -1.58718934
H        3.32149866      -0.74013968      -1.94224920
H        1.95289922       0.34589985      -2.25960899
H        2.76634895      -0.68298975       0.50759981
H        1.47098941       0.46563983       0.18444992
H        4.45919847       0.95113965      -0.39569985
H        4.58589804       1.66166933       1.63635937
H        3.90810852       3.70187844       1.97165916
H        2.22549911       3.13509879       2.08786919
H        2.58955886       4.53289838      -0.16547994
H        2.95409880       2.59578892      -1.82517923
