14
Properties=species:S:1:pos:R:3 atomization_energy=-1348.07 smiles=C.C.C.O.C.O.H.H.H.H.H.H.H.H pbc="F F F"
C        0.84238967       0.15081994      -0.28328987
C        2.26479919      -0.07673997       0.11840995
C        2.60579890       0.05888998       1.57053939
O        2.14936925      -1.08790956       2.27988911
C        3.16962880      -0.89075968      -0.77739967
O        3.21297881       0.54429978      -0.76488972
H        0.71671975       0.12602995      -1.37181944
H        0.49352982       1.12646956       0.07047997
H        0.19559992      -0.62161976       0.14462994
H        2.14806924       0.95242963       2.00813919
H        3.68756849       0.13166995       1.72295933
H        1.17818952      -1.06013962       2.27813919
H        2.74908899      -1.37306949      -1.65106940
H        3.99992834      -1.42412948      -0.32934989
