12
Properties=species:S:1:pos:R:3 atomization_energy=-1278.59 smiles=O.C.C.C.N.C.C.H.H.H.H.H pbc="F F F"
O        1.77016924      -0.55098978      -0.75229971
C        2.16828905       0.39558984      -0.08060997
C        1.67630934       0.52158981       1.28090954
C        1.26316951       0.61646974       2.40587912
N        3.06562871       1.34106947      -0.57564980
C        4.11537847       1.91602920       0.21279992
C        2.97859890       2.73960890      -0.27443989
H        0.88875964       0.68777975       3.40061864
H        5.06200775       1.96323925      -0.30860986
H        4.15710825       1.62165931       1.25205949
H        2.20035909       3.03920887       0.41333983
H        3.11861878       3.37101867      -1.14155960
