10
Properties=species:S:1:pos:R:3 atomization_energy=-1159.33 smiles=O.C.N.C.C.C.O.H.H.H pbc="F F F"
O        1.17388954      -0.10361996       0.48961982
C        2.32613916      -0.06387998       0.12777995
N        3.18038871      -1.09584954      -0.17126994
C        4.41457824      -0.64464978      -0.54694976
C        4.51989827       0.68945971      -0.54142977
C        3.19747886       1.18793947      -0.11038996
O        2.87446886       2.34609906       0.02494999
H        2.89649889      -2.06466922      -0.10988995
H        5.19221775      -1.34958944      -0.81236970
H        5.35669786       1.31632953      -0.78712969
