14
Properties=species:S:1:pos:R:3 atomization_energy=-1411.89 smiles=O.C.C.C.C.O.N.H.H.H.H.H.H.H pbc="F F F"
O        2.03916926      -0.39384986      -1.31657946
C        2.00997920       0.16874994      -0.00986000
C        3.08561889       1.23584949       0.08182997
C        2.83662876       2.55933891      -0.68045975
C        3.13981864       3.21390865       0.67772971
O        3.47949865       4.29042823       1.10106952
N        2.98048886       2.02571924       1.32635944
H        1.35259949      -1.08326957      -1.34520947
H        2.19873912      -0.63134978       0.71323972
H        1.01041958       0.57852978       0.16936993
H        4.09969835       0.83461969      -0.04294998
H        1.81660930       2.73961900      -1.03106961
H        3.55886869       2.78784884      -1.46623940
H        3.49565870       1.90585924       2.18841903
