17
Properties=species:S:1:pos:R:3 atomization_energy=-1680.42 smiles=C.C.C.N.C.C.N.H.H.H.H.H.H.H.H.H.H pbc="F F F"
C        2.85512893      -0.56480977       1.37639951
C        2.46774897       0.11242995       0.07509997
C        3.04909874       1.49741947       0.01676999
N        4.21135846       1.72935934      -0.53712979
C        4.40243808       3.19894868      -0.36967986
C        3.04355881       3.76702860       0.05607998
N        2.38576907       2.57674901       0.53910977
H        2.43743894      -1.57521938       1.42009950
H        2.48307911      -0.00215000       2.23908917
H        3.94351842      -0.63851976       1.47255942
H        1.37763946       0.17635993      -0.00691000
H        2.83854900      -0.46818983      -0.77611972
H        5.16124812       3.37085869       0.40236985
H        4.74692828       3.65076850      -1.30462943
H        2.50452903       4.17485824      -0.80526966
H        3.13515884       4.53639821       0.82711965
H        1.37317951       2.55656907       0.54166979
