10
Properties=species:S:1:pos:R:3 atomization_energy=-1066.53 smiles=O.N.C.C.O.C.C.H.H.H pbc="F F F"
O        1.00710962       0.21509992      -0.23202992
N        2.37055905       0.29663987      -0.54179981
C        2.99119881       0.82212968       0.46260981
C        4.47286827       1.03578959       0.41079983
O        5.20977799       0.17087993       0.86490966
C        5.02229788       2.27038909      -0.10380996
C        5.48859797       3.29827863      -0.51614980
H        0.64124974      -0.25637990      -1.00513961
H        2.50573896       1.15446950       1.39396946
H        5.91336786       4.20624825      -0.87846963
