17
Properties=species:S:1:pos:R:3 atomization_energy=-1676.8 smiles=C.C.C.C.N.C.N.H.H.H.H.H.H.H.H.H.H pbc="F F F"
C        3.14321881      -1.13801952      -0.52930979
C        2.46638891       0.07046997       0.09975996
C        3.34295868       1.31616943       0.05512998
C        3.60708869       1.86546921      -1.36436949
N        3.48969864       3.35301862      -1.26777948
C        2.94019888       3.53417858      -0.10731996
N        2.66530896       2.44765912       0.66139972
H        2.49999893      -2.01900925      -0.43989983
H        4.09169844      -1.35894941      -0.03005999
H        3.34329857      -0.97481961      -1.59233943
H        2.22066923      -0.16343994       1.14346950
H        1.51046941       0.25560989      -0.40669986
H        4.29427830       1.14498954       0.57283977
H        2.87400886       1.50499938      -2.09531914
H        4.60863813       1.59012938      -1.71067938
H        2.70112889       4.51755816       0.32776988
H        2.73411893       2.55522894       1.66608929
