14
Properties=species:S:1:pos:R:3 atomization_energy=-1446.33 smiles=C.C.C.C.N.C.S.H.H.H.H.H.H.H pbc="F F F"
C        0.86353964      -0.15799994       0.02133999
C        2.37982894      -0.03889999      -0.00896000
C        2.82323880       1.38762951      -0.01306999
C        3.07258876       2.22742919       1.05551956
N        3.47524864       3.50803858       0.73400974
C        3.52921851       3.62752853      -0.57428979
S        3.10761890       2.23363906      -1.47925944
H        0.56710977      -1.21140956       0.03845998
H        0.41014982       0.30758988      -0.86006964
H        0.44522983       0.32678986       0.90986967
H        2.77108899      -0.56716976      -0.88682962
H        2.79795899      -0.54537976       0.86977966
H        2.97430877       1.95361924       2.09973923
H        3.82245846       4.54929840      -1.05849960
