11
Properties=species:S:1:pos:R:3 atomization_energy=-1188.55 smiles=O.N.C.C.C.C.N.H.H.H.H pbc="F F F"
O        2.87213883      -1.03551960       0.06530997
N        2.15916904      -0.02512999       0.04867998
C        2.86689892       1.18041950       0.03044999
C        2.30083916       2.43447910       0.01013999
C        3.36560869       3.37419855      -0.00354000
C        4.54608824       2.66123885       0.00890000
N        4.22873828       1.32600946       0.02957999
H        1.24140947       2.65504892       0.00557000
H        3.27845877       4.45339839      -0.02060999
H        5.57848795       2.98573887       0.00487000
H        4.88190783       0.55446980       0.04238998
