15
Properties=species:S:1:pos:R:3 atomization_energy=-1413.76 smiles=C.C.S.O.O.C.C.H.H.H.H.H.H.H.H pbc="F F F"
C        1.12931951      -0.29181990      -0.01547999
C        2.63463885      -0.13038994      -0.10315996
S        3.12298865       1.57869941       0.06458997
O        2.60710900       2.30364913      -1.08100956
O        2.79349879       1.99730926       1.41451944
C        4.85610797       1.46598947      -0.04578998
C        5.46555760       1.47850939      -1.23853946
H        0.85355968      -1.34576952      -0.11616995
H        0.62631974       0.27024990      -0.80833971
H        0.74882972       0.07089998       0.94442965
H        2.99634889      -0.48907980      -1.07180956
H        3.12337875      -0.69620976       0.69639970
H        5.40502787       1.40281947       0.88386965
H        4.91145785       1.56857941      -2.16953910
H        6.54755756       1.42483941      -1.30684944
