14
Properties=species:S:1:pos:R:3 atomization_energy=-1383.17 smiles=O.C.N.C.C.C.O.H.H.H.H.H.H.H pbc="F F F"
O        1.31721950       0.02538999       0.64994974
C        2.36831910       0.19006992       0.04293998
N        3.22509878       1.24857947       0.19300993
C        2.85126876       2.50970889       0.79621967
C        3.10136866       3.51023865      -0.29838988
C        4.29600828       2.89387893      -0.98729960
O        4.09552832       1.47261947      -0.90952966
H        2.75063881      -0.55768980      -0.67304972
H        3.52068870       2.67573907       1.64667934
H        1.81640933       2.50869905       1.14917950
H        2.24768912       3.52662858      -0.98664960
H        3.27839872       4.52715835       0.06001998
H        4.37422845       3.19634866      -2.03503922
H        5.23224809       3.13600869      -0.47274980
