15
Properties=species:S:1:pos:R:3 atomization_energy=-1557.71 smiles=C.N.C.C.N.C.C.H.H.H.H.H.H.H.H pbc="F F F"
C        0.98150960       0.03803998      -0.00929000
N        2.42317895       0.02148999      -0.00233000
C        3.22598876       1.12829959       0.00738000
C        4.50866802       0.63869974       0.01104000
N        4.50340842      -0.73036973       0.00374000
C        3.23410878      -1.08925953      -0.00431000
C        2.74788890      -2.49274894      -0.01481999
H        0.62653977       1.07215955      -0.00389000
H        0.62313974      -0.47766982       0.88546968
H        0.63205977      -0.46549982      -0.91441964
H        2.83769889       2.13674916       0.01075000
H        5.43549789       1.19784953       0.01846999
H        1.65756933      -2.56628887      -0.00785000
H        3.12707869      -3.02409877       0.86374964
H        3.11504879      -3.00659884      -0.90881966
