12
Properties=species:S:1:pos:R:3 atomization_energy=-1293.47 smiles=O.C.C.C.C.C.N.H.H.H.H.H pbc="F F F"
O        0.93636963       0.07759997       0.01412999
C        2.35803913       0.01749999       0.01571000
C        2.92738878       1.43281939       0.00000000
C        4.37138821       1.43281939       0.00000000
C        5.56154794       1.43281939       0.00000000
C        7.09747720       1.43236948       0.00001000
N        8.25907658       1.42641938       0.00007000
H        0.61089978      -0.83947966       0.02401999
H        2.68220884      -0.54509980      -0.86670967
H        2.68110893      -0.52490980       0.91106963
H        2.54321898       1.98493923       0.86623964
H        2.54328888       1.96553924      -0.87833968
