15
Properties=species:S:1:pos:R:3 atomization_energy=-1427.28 smiles=O.N.C.N.C.C.C.H.H.H.H.H.H.H.H pbc="F F F"
O        1.15155949       0.57005978       0.69967976
N        2.30101908       1.36992948       0.68705972
C        3.11193881       0.93018965      -0.22013991
N        4.34095807       1.44345944      -0.55546979
C        5.11000823       2.06700921       0.48313982
C        6.35118732       1.43188942      -0.14565994
C        5.38007787       0.51282978      -0.88793963
H        0.60631978       1.00431959       1.38166945
H        2.83810893       0.06254998      -0.84976967
H        4.88498830       1.70159936       1.49081937
H        5.06428782       3.15809878       0.45051983
H        6.91872725       2.10527916      -0.79727972
H        7.03390739       0.93678963       0.54964977
H        5.54010786       0.41917985      -1.96447920
H        5.25268792      -0.47434980      -0.43039982
