13
Properties=species:S:1:pos:R:3 atomization_energy=-1320.79 smiles=C.C.C.N.S.C.N.H.H.H.H.H.H pbc="F F F"
C        0.97647963      -0.09187996       0.00317000
C        2.45540897       0.06228998       0.00730000
C        3.18327866       1.24341955       0.05162998
N        2.74528888       2.52029898       0.09441996
S        4.85933832       0.88210964       0.04878998
C        4.49139847      -0.78632967      -0.01276000
N        3.21651876      -1.09839960      -0.03448998
H        0.45999982       0.87247967       0.01601999
H        0.65562972      -0.65975975       0.88251967
H        0.65765973      -0.63463973      -0.89265967
H        3.40655877       3.27452871      -0.06674997
H        1.78404936       2.75447904      -0.13246995
H        5.26963802      -1.53786943      -0.03309998
