14
Properties=species:S:1:pos:R:3 atomization_energy=-1401.11 smiles=C.C.C.C.C.O.H.H.H.H.H.H.H.H pbc="F F F"
C        0.91707966      -0.00188000      -0.37357986
C        2.39776894       0.01707999      -0.10401996
C        3.06628881      -1.12529950       0.13465995
C        3.04399887       1.34192942      -0.14651995
C        2.84863897       2.27983915       1.02020959
O        4.12664834       1.70714939       0.72831973
H        0.70392971       0.44152983      -1.35180945
H        0.38323986       0.57253975       0.39080983
H        0.50869981      -1.01816962      -0.37260984
H        2.57073899      -2.08977921       0.15341994
H        4.13599847      -1.11139958       0.32347987
H        3.07204878       1.78016926      -1.13961955
H        2.33959901       1.92546930       1.90780926
H        2.71298897       3.33333880       0.81197966
