12
Properties=species:S:1:pos:R:3 atomization_energy=-1234.56 smiles=O.N.C.C.C.C.O.H.H.H.H.H pbc="F F F"
O        0.84546969       1.25854945       0.27867987
N        2.14282908       1.78219926       0.22802991
C        2.98358875       0.80391969       0.11342996
C        4.44813829       1.00411962       0.04410998
C        5.24183819      -0.07768997       0.02548999
C        5.04536802       2.36190913       0.00455000
O        6.25244758       2.56643901      -0.07262997
H        0.29798987       2.05653923       0.40663983
H        2.63249908      -0.24405990       0.06820997
H        4.85061825      -1.08812959       0.06063997
H        6.32276776       0.02514999      -0.01670000
H        4.32508845       3.19504866       0.04500998
