13
Properties=species:S:1:pos:R:3 atomization_energy=-1327.94 smiles=C.C.C.C.N.N.S.H.H.H.H.H.H pbc="F F F"
C        0.92429961       0.04508998      -0.00664000
C        2.40675899       0.03545999       0.00062000
C        3.31058861       1.07933964       0.00175000
C        4.65030811       0.58945976       0.00691000
N        5.70010758       1.42220949       0.00476000
N        4.78715795      -0.73035970       0.01257000
S        3.28661866      -1.43043940       0.00768000
H        0.54015978       1.07070953       0.00236000
H        0.52650979      -0.46867982       0.87437966
H        0.53626978      -0.44949981      -0.90321967
H        3.03009870       2.12329914      -0.00290000
H        5.62806802       2.43017912       0.03079999
H        6.63664715       1.03701958       0.03268999
