20
Properties=species:S:1:pos:R:3 atomization_energy=-1910.78 smiles=C.C.C.C.C.N.C.H.H.H.H.H.H.H.H.H.H.H.H.H pbc="F F F"
C        2.84780880      -1.19326959      -0.46551982
C        2.30633897       0.14790995      -0.00092000
C        3.37290863       1.20079954       0.00003000
C        3.42875862       2.24506916      -1.08295958
C        2.99600875       2.62851906       0.30535987
N        3.89880835       3.45090876       1.11552961
C        3.79997852       3.14259883       2.53689909
H        2.05043925      -1.94318926      -0.48046981
H        3.63708861      -1.54999938       0.20557992
H        3.27288881      -1.11996951      -1.47263941
H        1.91004920       0.04061998       1.01529960
H        1.46933942       0.44207982      -0.64357977
H        4.31062835       0.84280968       0.41173982
H        2.67526898       2.23273900      -1.86178921
H        4.40769817       2.56318898      -1.42359946
H        1.93730918       2.84682900       0.43580983
H        3.70105861       4.44161805       0.97143964
H        4.09936830       2.10989922       2.73658900
H        2.78282896       3.29736873       2.90972887
H        4.47306811       3.79580850       3.10124880
