14
Properties=species:S:1:pos:R:3 atomization_energy=-1428.79 smiles=C.C.C.C.C.O.H.H.H.H.H.H.H.H pbc="F F F"
C        0.95119964      -0.00267000       0.08958997
C        2.46029914       0.02638999      -0.02742999
C        3.19829868       1.07104954       0.86109965
C        4.21652823      -0.00214000       1.31837947
C        3.22395875      -1.05167959       0.77734971
O        3.09123882      -2.24577922       0.93591966
H        0.53983976      -0.86813963      -0.44062983
H        0.51375981       0.89899962      -0.35161985
H        0.62599979      -0.06084997       1.13395951
H        2.78892881       0.04946998      -1.07436959
H        2.59560900       1.47098941       1.68567928
H        3.63364857       1.91331929       0.31478987
H        5.16643807       0.00509000       0.77643968
H        4.39349848      -0.05038998       2.39423907
