14
Properties=species:S:1:pos:R:3 atomization_energy=-1390.23 smiles=O.C.C.O.N.C.C.H.H.H.H.H.H.H pbc="F F F"
O        0.58612974       0.03551998       0.18784993
C        1.96741924       0.05283998      -0.14833995
C        2.44375908       1.43888947      -0.57101977
O        1.66736937       2.38688917      -0.69347972
N        3.81566848       1.47626945      -0.81062968
C        4.59364814       2.61208902      -0.40469985
C        4.34592849       2.32658907      -1.83911927
H        0.20467992       0.85291964      -0.19248992
H        2.12993924      -0.64714975      -0.97354963
H        2.53594907      -0.27676988       0.72590972
H        5.54727760       2.34837913       0.02890999
H        4.04250848       3.40895869       0.07661997
H        3.62167848       2.92625884      -2.37539901
H        5.12241788       1.85961929      -2.42863914
