12
Properties=species:S:1:pos:R:3 atomization_energy=-1240.32 smiles=C.N.S.C.O.C.C.H.H.H.H.H pbc="F F F"
C        0.86559967      -0.10743996      -0.01042999
N        2.30379901      -0.00888000       0.08898997
S        3.09608888       1.46233937      -0.01868999
C        4.69187817       0.70601970      -0.01865999
O        5.76061763       1.28827950      -0.04422998
C        4.51673807      -0.75602968       0.00777000
C        3.21017869      -1.03977958       0.05055998
H        0.37451986       0.86990967       0.05502998
H        0.47530983      -0.72721969       0.80390966
H        0.57668978      -0.56879976      -0.96051962
H        5.34526776      -1.43992945      -0.01890999
H        2.80983900      -2.04744925       0.06080998
