13
Properties=species:S:1:pos:R:3 atomization_energy=-1276.72 smiles=O.N.C.N.C.C.C.H.H.H.H.H.H pbc="F F F"
O        0.63595974       2.54966907       0.00744000
N        2.00827924       2.75171904      -0.18060993
C        2.61484901       1.61491941      -0.09694996
N        3.95707845       1.40173950      -0.22371991
C        4.89738785       2.49884905      -0.21111992
C        6.25838746       1.97579916      -0.39315985
C        7.37121725       1.54635937      -0.54110981
H        0.27760989       3.44975864      -0.10233996
H        2.06191919       0.67622973       0.09151996
H        4.31486853       0.52555980       0.13739995
H        4.83296819       3.03500881       0.74230973
H        4.66375838       3.20720875      -1.01365957
H        8.35756651       1.16678957      -0.67645973
