14
Properties=species:S:1:pos:R:3 atomization_energy=-1410.94 smiles=O.C.C.C.N.C.O.H.H.H.H.H.H.H pbc="F F F"
O        1.81951931      -0.37051985      -1.18931948
C        2.04495925       0.17181994       0.10842996
C        3.15350887       1.19377955       0.01839999
C        2.82203896       2.52179908      -0.70157974
N        3.36753877       3.21223872       0.47609982
C        3.30988865       2.09453918       1.25183946
O        3.29847873       1.97306919       2.45386899
H        1.17261956      -1.09141961      -1.08878957
H        2.32806899      -0.64644972       0.77858967
H        1.10681952       0.60921976       0.46631980
H        4.11161848       0.75227972      -0.28748989
H        1.76219936       2.74301891      -0.86068968
H        3.39333863       2.71924905      -1.61090936
H        3.06719871       4.08333845       0.89481963
