15
Properties=species:S:1:pos:R:3 atomization_energy=-1524.76 smiles=C.C.C.C.N.C.N.H.H.H.H.H.H.H.H pbc="F F F"
C        0.99541962      -0.04222998       0.07619997
C        2.50409906       0.06212998      -0.00372000
C        3.18522868       1.10361958       0.90920964
C        4.21103825      -0.00695000       1.22206955
N        3.18393876      -0.99673963       0.78061967
C        5.41359805      -0.01822999       0.39957985
N        6.36100755      -0.03640999      -0.27177988
H        0.63586972      -0.91236964      -0.48337982
H        0.52866978       0.84754965      -0.35906987
H        0.64242977      -0.13332994       1.10928959
H        2.85268889       0.11447996      -1.04411961
H        2.59220910       1.40906946       1.78040935
H        3.55971854       2.00198925       0.40975984
H        4.44654810      -0.08853996       2.28940906
H        3.54342854      -1.77253927       0.22352992
