12
Properties=species:S:1:pos:R:3 atomization_energy=-1276.37 smiles=O.C.N.C.C.C.C.H.H.H.H.H pbc="F F F"
O        2.07548919      -0.86934969       0.36007986
C        2.45181905       0.18307992      -0.13954994
N        3.00488879       1.24288952       0.55366979
C        4.08051840       2.00974919      -0.00029000
C        2.72228889       2.59510888       0.16776993
C        2.48415908       3.52916855       1.22564950
C        2.28049899       4.31219836       2.11263916
H        2.37783906       0.36562985      -1.22556951
H        4.41184852       1.71534927      -0.98684963
H        4.85758815       2.23024924       0.71866970
H        2.10321913       2.70294896      -0.71600975
H        2.09793922       4.99914800       2.90642888
