13
Properties=species:S:1:pos:R:3 atomization_energy=-1256.69 smiles=C.S.O.O.C.C.C.H.H.H.H.H.H pbc="F F F"
C        1.10221952       0.12421995      -0.00080000
S        2.86851889      -0.05111998       0.00622000
O        3.22444878      -0.65961977       1.27508952
O        3.23292862      -0.67540971      -1.25240948
C        3.41429878       1.65659936      -0.00263000
C        4.88022832       1.69583927       0.00199000
C        6.08079773       1.73755934       0.00568000
H        0.80357967       0.66026971      -0.90352966
H        0.79754971       0.67147972       0.89313967
H        0.66004974      -0.87429967       0.00394000
H        3.00188883       2.14045918       0.88681965
H        3.00782870       2.12927914      -0.90076966
H        7.14709713       1.76041929       0.00903000
