13
Properties=species:S:1:pos:R:3 atomization_energy=-1308.21 smiles=C.C.C.N.N.C.S.H.H.H.H.H.H pbc="F F F"
C        0.90587962      -0.10739996       0.02743999
C        2.42204901      -0.00297000      -0.02264999
C        2.87334876       1.41926945      -0.02598999
N        3.05854880       2.14862916       1.05603955
N        3.47659861       3.43028876       0.75808971
C        3.59189860       3.61817865      -0.53804978
S        3.20124868       2.25167923      -1.49593942
H        0.59875974      -1.15776949       0.05015998
H        0.44577982       0.36188986      -0.84870968
H        0.50432982       0.38347986       0.92058965
H        2.79868899      -0.53361980      -0.90500964
H        2.84709899      -0.50884979       0.85235966
H        3.90810852       4.55973835      -0.96348962
