16
Properties=species:S:1:pos:R:3 atomization_energy=-1553.16 smiles=C.C.O.C.C.C.H.H.H.H.H.H.H.H.H.H pbc="F F F"
C        0.95878964      -0.01389000       0.06009998
C        2.47597901       0.00329000      -0.03184999
O        2.85101896       0.04082998      -1.42716944
C        3.16551883       1.06192953       0.87425968
C        4.21089847      -0.00731000       1.23919956
C        3.18689886      -1.08100956       0.82287967
H        0.61564979      -0.04217998       1.10010953
H        0.54902979      -0.89198967      -0.44994981
H        0.53061977       0.87898963      -0.40782982
H        3.82305851       0.04899998      -1.44033949
H        2.56190891       1.39679948       1.72604938
H        3.56491859       1.94119925       0.36090987
H        5.10421823       0.01637999       0.60475974
H        4.52114832      -0.02948999       2.28684916
H        3.60543870      -1.92644923       0.26944989
H        2.59187905      -1.46835936       1.65832935
