12
Properties=species:S:1:pos:R:3 atomization_energy=-1246.66 smiles=O.C.C.N.O.C.C.H.H.H.H.H pbc="F F F"
O        1.04553961       0.00947000       0.13629995
C        2.25520909       0.03954999      -0.01959999
C        2.98445879       1.34253943      -0.00054000
N        4.26286810       1.41725938      -0.16965994
O        4.58672820       2.79405896      -0.05668998
C        3.36754861       3.53721867      -0.20101992
C        2.27699916       2.61048898       0.26919989
H        2.88967888      -0.84560967      -0.18200993
H        3.25029860       3.80207842      -1.25728957
H        3.42008877       4.45426843       0.39163984
H        1.34813942       2.72319905      -0.29219988
H        2.09301914       2.69653899       1.34390946
