9
Properties=species:S:1:pos:R:3 atomization_energy=-1049.76 smiles=N.C.C.N.S.C.C.H.H pbc="F F F"
N        0.90464963      -0.00923000      -0.00077000
C        2.06506917       0.03871998      -0.00004000
C        3.50103866       0.04099998       0.00083000
N        4.12607832       1.21807956       0.00205000
S        5.76380759       0.94636964       0.00284000
C        5.65977798      -0.76281972       0.00154000
C        4.32828851      -1.12309955       0.00048000
H        6.54071737      -1.38934940       0.00161000
H        3.97247848      -2.14526912      -0.00047000
