17
Properties=species:S:1:pos:R:3 atomization_energy=-1581.87 smiles=C.C.N.C.S.N.C.H.H.H.H.H.H.H.H.H.H pbc="F F F"
C        1.52002936       1.97094923       0.09354996
C        1.82165933       0.57815980      -0.43109982
N        3.17968875       0.15906994      -0.11117996
C        3.60164868      -0.46483981       1.02660959
S        2.65145900      -0.91819963       2.32075920
N        4.93068801      -0.75787971       1.08576954
C        5.93572744      -0.58544977       0.06205997
H        0.50684982       2.27208905      -0.18995992
H        2.22282919       2.70271883      -0.31790988
H        1.59632941       2.01433923       1.18406960
H        1.73884926       0.56955978      -1.52320937
H        1.10151955      -0.14517994      -0.03701998
H        3.89469838       0.49192981      -0.73869969
H        5.20568820      -1.24087946       1.93436927
H        5.61539796      -1.09357957      -0.85126965
H        6.87428718      -1.01627959       0.41826984
H        6.06876758       0.48119981      -0.13532995
