15
Properties=species:S:1:pos:R:3 atomization_energy=-1518.71 smiles=C.C.C.C.N.N.C.H.H.H.H.H.H.H.H pbc="F F F"
C        3.12852884      -1.22397957      -0.52634979
C        2.44963916       0.00438000       0.06224997
C        3.36447875       1.21957954       0.05968997
C        2.74027884       2.36924894       0.77572968
N        2.52648892       3.39406863       0.01771999
N        2.98495891       3.07737877      -1.29607944
C        3.45677875       1.87372927      -1.27691955
H        2.45336912      -2.08460919      -0.48434982
H        4.03455853      -1.47711942       0.03346998
H        3.40400871      -1.06308963      -1.57314938
H        2.13966913      -0.22301991       1.08966957
H        1.53154942       0.20825992      -0.50348981
H        4.35587842       1.00864960       0.46751983
H        2.50294893       2.32630898       1.84683922
H        3.89699838       1.36586947      -2.14537914
