12
Properties=species:S:1:pos:R:3 atomization_energy=-1204.54 smiles=O.C.C.C.C.N.O.H.H.H.H.H pbc="F F F"
O        1.00085963      -0.00298000      -0.00978000
C        2.41999907       0.00000000       0.00000000
C        2.90201889       1.36116943       0.00000000
C        3.29929881       2.48306901       0.00000000
C        4.01805834       3.72386860      -0.00029000
N        3.26973871       4.76815792       0.00066000
O        4.09954846       5.89939780       0.00023000
H        0.72194969      -0.93283964      -0.00735000
H        2.77205895      -0.54088978      -0.88373963
H        2.75979894      -0.53638976       0.89125967
H        5.11991778       3.71650861      -0.00124000
H        3.45408864       6.63101764       0.00067000
