15
Properties=species:S:1:pos:R:3 atomization_energy=-1450.05 smiles=C.C.C.N.C.N.S.H.H.H.H.H.H.H.H pbc="F F F"
C        0.69933974      -0.05914998       0.02329999
C        2.15863914      -0.03183999       0.34461987
C        3.00963893       0.87680967      -0.14666994
N        4.33924827       0.86655966       0.18800992
C        5.32981802       1.70234929      -0.21862991
N        5.05152793       2.63885884      -1.15019955
S        6.85442719       1.59725938       0.43477981
H        0.44149984      -1.00835961      -0.45537982
H        0.40823983       0.75336973      -0.64954973
H        0.11436996       0.03312999       0.94302966
H        2.51146890      -0.80917966       1.01888958
H        2.66247906       1.65887931      -0.81414970
H        4.64465842       0.17638992       0.86750969
H        4.30158834       2.49134901      -1.80835933
H        5.83100795       3.19156876      -1.48652936
