9
Properties=species:S:1:pos:R:3 atomization_energy=-1014.79 smiles=C.C.C.N.S.N.C.H.H pbc="F F F"
C        0.95087962       0.00867000      -0.00067000
C        2.15151912       0.02972999      -0.00054000
C        3.57788867       0.05131998       0.00003000
N        4.18116829       1.24075947       0.00191000
S        5.81979788       0.87601969       0.00246000
N        5.75156751      -0.80228969       0.00036000
C        4.44446839      -1.07949961      -0.00083000
H       -0.11395996       0.00141000      -0.00067000
H        4.14687849      -2.11934915      -0.00228000
