16
Properties=species:S:1:pos:R:3 atomization_energy=-1608.5 smiles=C.C.C.N.C.C.C.H.H.H.H.H.H.H.H.H pbc="F F F"
C        0.93029961       0.03118999       0.02223999
C        2.44481913      -0.00496000       0.01432000
C        3.16979887       0.99288962       0.94042964
N        4.15439846      -0.07003997       1.24981955
C        3.12720889      -1.08475958       0.89340966
C        3.72379846      -2.19750901       0.19133992
C        4.21513839      -3.12757881      -0.38951985
H        0.52340978      -0.81709971      -0.53735979
H        0.56510979       0.95006964      -0.44733982
H        0.52860979      -0.01130999       1.03990959
H        2.83056877       0.03556999      -1.01557962
H        2.59661909       1.31746943       1.81708924
H        3.58803869       1.87647931       0.44970981
H        4.95037792      -0.07656997       0.61115974
H        2.53091910      -1.39480947       1.76184925
H        4.65085820      -3.95550845      -0.89910964
