13
Properties=species:S:1:pos:R:3 atomization_energy=-1268.21 smiles=O.N.C.C.C.C.N.H.H.H.H.H.H pbc="F F F"
O        2.10600915      -0.41368984       1.52694942
N        2.61585909       0.22643991       0.38558985
C        2.79991885      -0.64639975      -0.76550970
C        4.00787854      -1.47556948      -0.62079974
C        4.99954820      -2.14349927      -0.50537980
C        3.42620856       1.29281945       0.66325971
N        3.45120854       1.95406927       1.76896928
H        2.90787878      -0.76312971       1.96505919
H        2.86856885      -0.04018999      -1.67591936
H        1.91827924      -1.28738953      -0.88040968
H        5.88367756      -2.73085881      -0.40433983
H        4.10458828       1.56740935      -0.16254993
H        2.71396902       1.55168937       2.36237897
