14
Properties=species:S:1:pos:R:3 atomization_energy=-1448.88 smiles=C.C.C.N.C.C.S.H.H.H.H.H.H.H pbc="F F F"
C        0.89334967      -0.11059996       0.03188999
C        2.40969916      -0.01621999      -0.02310999
C        2.87038891       1.40777942      -0.03399999
N        3.05969867       2.13063921       1.05055961
C        3.48200859       3.39678876       0.69837974
C        3.61166850       3.62663856      -0.65336971
S        3.19187887       2.21115912      -1.52234942
H        0.57927977      -1.15890952       0.06143997
H        0.43314982       0.35683986      -0.84569969
H        0.49701981       0.38800984       0.92355965
H        2.78123902      -0.55356980      -0.90307962
H        2.83409889      -0.51881981       0.85378968
H        3.68385846       4.12236830       1.47677940
H        3.92357845       4.53026808      -1.15616958
