18
Properties=species:S:1:pos:R:3 atomization_energy=-1766.1 smiles=C.C.C.N.C.C.C.H.H.H.H.H.H.H.H.H.H.H pbc="F F F"
C        0.77417967      -0.29049989      -0.54515979
C        2.19056914      -0.12855995      -0.04692998
C        3.29165872      -0.61119974      -0.97996963
N        3.02661880       0.80786968      -0.81829967
C        2.41043899      -0.14859994       1.48323946
C        1.78409932       0.88404963       2.39373895
C        1.36753940      -0.55273975       2.49906909
H        0.70696973      -0.21057991      -1.63642939
H        0.12290995       0.48018982      -0.11902995
H        0.38336984      -1.27312953      -0.26249989
H        3.01634892      -1.04180959      -1.93469920
H        4.21383838      -0.98818963      -0.55611980
H        3.71261842       1.24944951      -0.20493991
H        3.42760875      -0.43362981       1.76366932
H        1.08088958       1.58800942       1.96376927
H        2.39571900       1.29866949       3.18632885
H        1.69866929      -1.11545959       3.36488879
H        0.37153986      -0.81545968       2.16452906
