20
Properties=species:S:1:pos:R:3 atomization_energy=-1913.67 smiles=C.C.C.N.C.C.C.H.H.H.H.H.H.H.H.H.H.H.H.H pbc="F F F"
C        1.34480953       0.17960992       1.24588949
C        2.01604915       0.38482987      -0.10361996
C        3.24743868       1.22735954       0.02236999
N        3.57912862       2.20444913      -1.01154958
C        3.14248881       2.71076895       0.28625988
C        4.14053841       3.36273867       1.19671947
C        3.92841842       4.86576822       1.27763945
H        0.48180982      -0.48624981       1.14527959
H        0.99302960       1.13140958       1.65545933
H        2.03810921      -0.26011990       1.96868922
H        1.29406950       0.83457970      -0.79690967
H        2.29463914      -0.59025977      -0.52175979
H        4.08398846       0.68478975       0.44862984
H        2.83227882       2.28930914      -1.70294934
H        2.15336921       3.14921874       0.34549987
H        5.16540806       3.16010885       0.86350967
H        4.03936847       2.93425875       2.20132905
H        3.99651833       5.32707771       0.28793990
H        4.68288812       5.32302779       1.92562927
H        2.94112872       5.09787816       1.68959937
