12
Properties=species:S:1:pos:R:3 atomization_energy=-1248.5 smiles=C.C.C.O.C.N.S.H.H.H.H.H pbc="F F F"
C        0.88521962       0.01024000      -0.00344000
C        2.36746900       0.05814998      -0.00452000
C        3.23561872       1.12507959      -0.00175000
O        2.80156884       2.39996901       0.00299000
C        4.58734844       0.68390975      -0.00445000
N        4.78444791      -0.63213976      -0.00929999
S        3.30001871      -1.38031947      -0.01062000
H        0.45437983       1.01679958       0.00876000
H        0.51418979      -0.52090981       0.87948968
H        0.51265980      -0.50032979      -0.89777966
H        3.55396867       3.01662876       0.00431000
H        5.46851795       1.31087942      -0.00307000
