14
Properties=species:S:1:pos:R:3 atomization_energy=-1445.25 smiles=C.C.C.C.C.N.S.H.H.H.H.H.H.H pbc="F F F"
C        0.87924965      -0.18951992       0.02471999
C        2.39018916      -0.01837999      -0.01279999
C        2.78358898       1.42116938      -0.01924999
C        3.01135881       2.28413913       1.03499961
C        3.36916857       3.57368861       0.54899976
N        3.42392875       3.72629855      -0.77087968
S        3.03529874       2.27877910      -1.48212946
H        0.61903973      -1.25255949       0.04402998
H        0.40551983       0.25944990      -0.85502964
H        0.44822983       0.28145991       0.91498966
H        2.79509882      -0.53357980      -0.89176964
H        2.82906891      -0.50872981       0.86440967
H        2.92737894       2.01440925       2.07897918
H        3.60034867       4.43886814       1.15672950
