19
Properties=species:S:1:pos:R:3 atomization_energy=-1788.72 smiles=C.C.C.N.C.C.N.H.H.H.H.H.H.H.H.H.H.H.H pbc="F F F"
C        0.89221967      -0.03939998      -0.21549991
C        2.37193905       0.07076997       0.04186998
C        2.75845881      -0.02681999       1.49340943
N        3.28870872      -0.54153978      -0.93075961
C        3.19065885       0.92232966      -0.92070963
C        4.37919836       1.73302936      -0.50648980
N        5.30090792       1.78512934      -1.63871930
H        0.64771977       0.04561998      -1.28085945
H        0.35584987       0.75600968       0.31385987
H        0.51188979      -1.00418958       0.13836994
H        3.83012858      -0.20158991       1.63538941
H        2.23147910      -0.85796967       1.97527923
H        2.48913909       0.89582965       2.01818917
H        2.78467880      -0.92050966      -1.73354930
H        2.67794898       1.37514946      -1.76377934
H        4.89964823       1.30627943       0.35650987
H        4.06297835       2.74720887      -0.24260991
H        5.53403778       0.81975966      -1.88126931
H        6.17302733       2.21211924      -1.33306943
