14
Properties=species:S:1:pos:R:3 atomization_energy=-1474.75 smiles=C.C.C.C.C.C.H.H.H.H.H.H.H.H pbc="F F F"
C        1.48501941      -0.79417970       0.08424997
C        2.74587883      -0.37379986      -0.06862997
C        3.10645868       1.02343962      -0.12860995
C        4.37183837       1.44286949      -0.27847990
C        4.73080834       2.84052879      -0.33803986
C        5.99187771       3.26363860      -0.48310980
H        1.25963953      -1.85534922       0.12427995
H        0.65156977      -0.10461996       0.17321994
H        3.54247851      -1.11028957      -0.15232993
H        2.29867921       1.74777926      -0.04590998
H        5.17997817       0.71894973      -0.36064984
H        3.93251854       3.57574864      -0.26033990
H        6.82745752       2.57570890      -0.56503977
H        6.21517775       4.32525852      -0.52281980
