15
Properties=species:S:1:pos:R:3 atomization_energy=-1416.87 smiles=C.C.C.S.C.O.O.H.H.H.H.H.H.H.H pbc="F F F"
C        1.09603955       0.10833995       0.17323993
C        2.56460910       0.02350999      -0.08582996
C        3.20181870      -1.10953952      -0.42590983
S        3.49664860       1.50215939       0.06677997
C        4.11600828       1.37391947       1.72604938
O        4.64117826       1.45476943      -0.82507968
O        2.59346899       2.63739885       0.03646998
H        0.61486977       0.76978968      -0.55424977
H        0.90549967       0.49698981       1.17885958
H        0.61331976      -0.87206963       0.10031996
H        2.66468898      -2.04606925      -0.54010975
H        4.27068835      -1.13251958      -0.62518974
H        3.27436873       1.31636952       2.41896905
H        4.70679802       2.26836918       1.93612928
H        4.74794820       0.48761981       1.80730925
