16
Properties=species:S:1:pos:R:3 atomization_energy=-1590.86 smiles=O.C.C.C.C.N.C.H.H.H.H.H.H.H.H.H pbc="F F F"
O        2.20550917      -0.34027987       1.40918945
C        2.46372908      -0.01600999       0.05340998
C        2.98755893       1.36892949      -0.01704999
C        4.14188839       1.79117935      -0.53986979
C        4.27661814       3.26076884      -0.37869985
N        2.96990887       3.72641841       0.11865996
C        2.23010920       2.51946906       0.54755977
H        1.95918921      -1.27888950       1.43097939
H        1.53170939      -0.10273996      -0.51374978
H        3.18527864      -0.73596972      -0.34712987
H        4.89676812       1.16494957      -0.99115964
H        5.06418790       3.49959860       0.34328986
H        4.51555817       3.74387847      -1.33148947
H        2.46513911       4.13167831      -0.66723973
H        1.20437949       2.55449895       0.16619994
H        2.20008910       2.47355890       1.64109941
