9
Properties=species:S:1:pos:R:3 atomization_energy=-1050.2 smiles=N.C.C.C.C.N.S.H.H pbc="F F F"
N        0.84715968       0.16112994      -0.00763000
C        2.00536923       0.10913996      -0.00347000
C        3.42699861       0.06482998       0.00162000
C        4.29060839       1.14147961       0.00379000
C        5.64105803       0.68550971       0.00896999
N        5.83207784      -0.63094977       0.01075000
S        4.34612834      -1.37388944       0.00609000
H        3.98545840       2.17998914       0.00183000
H        6.52378746       1.31354947       0.01158000
