16
Properties=species:S:1:pos:R:3 atomization_energy=-1638.72 smiles=C.C.C.C.N.C.C.H.H.H.H.H.H.H.H.H pbc="F F F"
C        1.03953961       0.13456995       0.18551993
C        2.35268895      -0.06317997       0.02237999
C        3.00011872      -1.40980943      -0.10856995
C        4.24966815      -1.09406960      -0.93255962
N        4.61948837       0.31490988      -0.66590976
C        3.91007848       1.27819950      -1.50800943
C        3.38914867       0.95337966      -0.14358994
H        0.62642976       1.13693954       0.23889990
H        0.34870987      -0.69858975       0.26844989
H        2.36477915      -2.14662919      -0.60691975
H        3.28057860      -1.78012927       0.88340965
H        5.07302807      -1.75525937      -0.64108976
H        4.06971837      -1.26254953      -2.00284920
H        4.40574816       2.23201910      -1.64426932
H        3.38053862       0.91837967      -2.38185895
H        3.54334855       1.65541933       0.66726976
