12
Properties=species:S:1:pos:R:3 atomization_energy=-1311.31 smiles=C.C.C.N.C.C.C.H.H.H.H.H pbc="F F F"
C        1.03306959      -0.02829999      -0.11399996
C        2.23047912       0.01173000      -0.04154998
C        3.65991853       0.06692997       0.05011998
N        4.45875841      -0.65303972      -0.93807961
C        4.43159849       0.80360970      -1.02175960
C        5.60861782       1.52971939      -0.64394974
C        6.58874762       2.14613916      -0.32741987
H       -0.03062999      -0.06120998      -0.17211993
H        4.07206833       0.06053998       1.05455957
H        3.85558855      -1.06086962      -1.65176937
H        3.87858854       1.21160953      -1.86193922
H        7.46088720       2.68918883      -0.04511998
