14
Properties=species:S:1:pos:R:3 atomization_energy=-1417.6 smiles=O.C.C.N.C.C.O.H.H.H.H.H.H.H pbc="F F F"
O        1.26608949       0.11838995       0.70174975
C        2.32803896       0.06680998       0.08235997
C        3.07755868      -1.25156947      -0.09279996
N        4.04464850      -1.27604951      -1.20554955
C        4.88120787      -0.08222997      -1.13835954
C        3.98878842       1.13727956      -1.31299951
O        2.93824886       1.20598949      -0.33368986
H        2.33800908      -2.03840923      -0.27291988
H        3.59226852      -1.46552947       0.85062968
H        4.62174826      -2.11241913      -1.12227960
H        5.41085774      -0.04383998      -0.17859994
H        5.63091785      -0.11086995      -1.93555927
H        4.58771835       2.04763913      -1.20877951
H        3.52617867       1.15938958      -2.30652898
