14
Properties=species:S:1:pos:R:3 atomization_energy=-1427.89 smiles=C.C.C.C.O.C.H.H.H.H.H.H.H.H pbc="F F F"
C        0.95433965      -0.01250000       0.04853998
C        2.46925893       0.01831999       0.02935999
C        3.15069866       1.08971953       0.93384966
C        4.17431825      -0.01284999       1.29433949
O        5.30266768      -0.01265000       1.73381929
C        3.19501862      -1.11269959       0.81980968
H        0.57940978      -0.85778964      -0.53670978
H        0.54531977       0.90500964      -0.38721985
H        0.56495978      -0.10618996       1.06777958
H        2.83132879       0.08047997      -1.00696958
H        2.56690910       1.42434939       1.79655931
H        3.56790871       1.94876919       0.40467985
H        3.64519853      -1.89609920       0.20681992
H        2.62719886      -1.55709935       1.64335929
