15
Properties=species:S:1:pos:R:3 atomization_energy=-1551.27 smiles=C.C.C.N.N.C.C.H.H.H.H.H.H.H.H pbc="F F F"
C        2.21087903      -0.50659979      -1.39702948
C        2.46379898       0.02261999       0.00615000
C        3.05497882       1.39102942      -0.00248000
N        2.26696899       2.47382915      -0.00381000
N        3.12745870       3.50408858      -0.01306999
C        4.43494844       3.11876866      -0.01682999
C        4.42476838       1.74635927      -0.00946000
H        1.78063936      -1.51213947      -1.35205951
H        3.14083882      -0.55974977      -1.97368917
H        1.51383942       0.13784995      -1.94366919
H        3.13793877      -0.66250972       0.53397981
H        1.52156934       0.02832999       0.56729977
H        2.74878897       4.44527837      -0.01623000
H        5.23775799       3.84225839      -0.02400999
H        5.28172772       1.08690957      -0.01041000
