15
Properties=species:S:1:pos:R:3 atomization_energy=-1573.55 smiles=C.C.C.C.C.C.S.H.H.H.H.H.H.H.H pbc="F F F"
C        0.87358968       0.10325996      -0.00973999
C        2.36251902       0.03802998      -0.00028000
C        3.26861861       1.07870956       0.00844000
C        4.63013827       0.63332975       0.01579000
C        5.81983775       1.53197939       0.02613999
C        4.69229805      -0.74695969       0.01251999
S        3.14931866      -1.47962936       0.00038000
H        0.52845978       1.14166949      -0.00197000
H        0.45780983      -0.39459985       0.87183963
H        0.47029982      -0.37733985      -0.90656962
H        2.96938881       2.12041929       0.00947999
H        5.52298769       2.58519908       0.01129000
H        6.44748753       1.34389949      -0.85077969
H        6.41886761       1.36044952       0.92609962
H        5.57785763      -1.36769950       0.01660999
