16
Properties=species:S:1:pos:R:3 atomization_energy=-1653.82 smiles=C.C.C.N.C.C.C.H.H.H.H.H.H.H.H.H pbc="F F F"
C        0.88032963      -0.06062998      -0.09755996
C        2.21534909      -0.03213999       0.02026999
C        2.99206885       1.25074952       0.22106990
N        4.31696843       1.22945957      -0.40511985
C        5.10230809       0.07718997       0.03268999
C        4.33370809      -1.20936946       0.00223000
C        2.99391894      -1.25511952      -0.02629999
H        0.29333988       0.85318964      -0.05738998
H        0.33348989      -0.98853962      -0.23373992
H        2.43613893       2.09145923      -0.21123992
H        3.09213888       1.45175937       1.29563950
H        4.81399793       2.08079924      -0.15310994
H        5.49519795       0.23719991       1.04386962
H        5.96429790      -0.01421999      -0.63792975
H        4.90364819      -2.13052919      -0.00818000
H        2.48090906      -2.20991917      -0.07953997
