15
Properties=species:S:1:pos:R:3 atomization_energy=-1391.77 smiles=C.C.C.O.C.H.H.H.H.H.H.H.H.H.H pbc="F F F"
C        0.92442963      -0.04115999       0.02328999
C        2.44154892      -0.01535000       0.00770000
C        2.98474872       1.40783948       0.00002000
O        4.40971833       1.34405947      -0.01609999
C        4.99281802       2.63992898      -0.01390999
H        0.56207980      -1.07410956       0.03040999
H        0.51379981       0.45631982      -0.86186964
H        0.53181979       0.46231981       0.91308967
H        2.81408902      -0.55531978      -0.87053968
H        2.83187887      -0.55221976       0.87998967
H        2.65218899       1.94588920       0.89587967
H        2.63274888       1.94404920      -0.88953966
H        6.08058779       2.52818912      -0.03315999
H        4.71370836       3.18366877       0.89364963
H        4.68347806       3.20140866      -0.90039962
