15
Properties=species:S:1:pos:R:3 atomization_energy=-1634.78 smiles=C.C.C.C.C.C.C.H.H.H.H.H.H.H.H pbc="F F F"
C       -0.00593000       0.02696999      -1.34722951
C        0.03262999      -1.11315959      -0.31944989
C        1.26070954      -0.65406974       0.44971981
C        1.22630947       0.69455970       0.47869981
C       -0.02459999       1.12296960      -0.27094990
C       -1.23868947       0.63158974       0.50064981
C       -1.20396957      -0.71814971       0.47123982
H        0.87836965       0.06393998      -1.99826926
H       -0.90237966       0.01789999      -1.98248922
H        0.05470998      -2.11270918      -0.75043972
H        1.98334916      -1.29576945       0.92827963
H        1.91573928       1.35109952       0.98517964
H       -0.05451998       2.13991920      -0.65908975
H       -1.95141929       1.25157956       1.01950962
H       -1.88356931      -1.39584945       0.96267964
