14
Properties=species:S:1:pos:R:3 atomization_energy=-1295.01 smiles=N.S.O.O.C.C.C.H.H.H.H.H.H.H pbc="F F F"
N        3.52425868      -1.04888956      -0.54905976
S        2.65485891       0.18782993       0.18355993
O        1.55666937       0.46406982      -0.71196974
O        2.44902902      -0.24293990       1.54632934
C        3.76233852       1.61525930       0.24247990
C        3.86045854       2.39516917      -1.04151959
C        3.07891875       2.95019876       0.11981996
H        3.60025859      -1.82904923       0.10673996
H        3.04133880      -1.32373949      -1.40659939
H        4.63493811       1.53078940       0.87241968
H        3.30510873       2.06239925      -1.91171926
H        4.81196817       2.85645896      -1.28035946
H        3.50225868       3.78528856       0.66640975
H        1.99803926       2.98750872       0.03415998
