13
Properties=species:S:1:pos:R:3 atomization_energy=-1270.08 smiles=C.C.C.C.O.H.H.H.H.H.H.H.H pbc="F F F"
C        0.95729962      -0.02963999       0.00517000
C        2.47698909      -0.00837000       0.00455000
C        3.01600878       1.41685944       0.00858000
C        4.52501808       1.46681939       0.00716000
O        5.25713804       0.48369981      -0.00436000
H        0.59237980      -1.06157955       0.00372000
H        0.55761978       0.47317981      -0.88135964
H        0.55823976       0.47048983       0.89347962
H        2.84607881      -0.54594977      -0.87713966
H        2.84693876      -0.55089976       0.88285963
H        2.66972904       1.95448928       0.89797963
H        2.66771897       1.96089925      -0.87610964
H        4.95566830       2.48304908       0.01599999
