10
Properties=species:S:1:pos:R:3 atomization_energy=-1115.58 smiles=O.C.C.N.S.C.C.H.H.H pbc="F F F"
O        2.65125890      -1.11752959       0.08469997
C        2.12229916      -0.01027000       0.01582999
C        2.86775887       1.24166950      -0.00671000
N        2.20071917       2.39853905      -0.08337997
S        3.28267876       3.65243867      -0.09214996
C        4.68508794       2.68081900       0.00692000
C        4.29787806       1.35990941       0.04713998
H        1.02540957       0.09254996      -0.03370999
H        5.67871797       3.10549882       0.02976999
H        4.98176793       0.52314979       0.11088996
