12
Properties=species:S:1:pos:R:3 atomization_energy=-1284.54 smiles=O.C.C.O.C.C.N.H.H.H.H.H pbc="F F F"
O        0.89776963      -0.11038996      -0.00363000
C        2.12600918      -0.07971997      -0.00852000
C        2.93749893       1.22211951      -0.04002999
O        4.35927833       1.18509949      -0.00282000
C        4.91127818      -0.06655997       0.00472000
C        4.23577833      -1.21778951       0.00713999
N        2.87240882      -1.22984955       0.00443000
H        2.60822885       1.82634929       0.81235966
H        2.65269895       1.75293931      -0.95623964
H        5.99273765      -0.01084000       0.01379999
H        4.73545831      -2.18112918       0.01641000
H        2.35860914      -2.10239918       0.01698999
