10
Properties=species:S:1:pos:R:3 atomization_energy=-1149.24 smiles=C.C.C.C.C.C.H.H.H.H pbc="F F F"
C        0.94000963      -0.06518997      -0.00000000
C        2.27682909      -0.04169998      -0.00000000
C        2.99775892       1.18147954      -0.00000000
C        3.60812855       2.21531905      -0.00000000
C        4.38174842       3.53782856      -0.00000000
C        4.98471819       4.57544799      -0.00000000
H        0.40300983      -1.00806962      -0.00000000
H        0.35175986       0.84768964      -0.00000000
H        2.84111899      -0.96954961       0.00000000
H        5.51854767       5.49706772      -0.00000000
