14
Properties=species:S:1:pos:R:3 atomization_energy=-1434.08 smiles=O.C.C.C.N.C.O.H.H.H.H.H.H.H pbc="F F F"
O        1.00009961       0.05688998      -0.00211000
C        2.40942916       0.02385999      -0.01907999
C        2.99293889       1.15742960       0.82061967
C        4.35208840       0.62697977       1.23769945
N        4.14599836      -0.78616970       1.34860951
C        3.03977888      -1.20523956       0.63750975
O        2.64092896      -2.35450902       0.54562975
H        0.70850971      -0.84205969      -0.24793990
H        2.76253900       0.07744997      -1.05491958
H        2.36378900       1.33956949       1.70151937
H        3.05778878       2.10038923       0.26936989
H        5.11277781       0.80241970       0.47047983
H        4.69115802       1.03325960       2.19380908
H        4.74455838      -1.44537943       1.83151930
