11
Properties=species:S:1:pos:R:3 atomization_energy=-1088.85 smiles=C.C.S.O.O.C.C.H.H.H.H pbc="F F F"
C        2.34180918      -0.79827971      -1.05266961
C        2.46031908      -0.01430999       0.02734999
S        3.14253877       1.56011937      -0.09589996
O        3.13975884       2.10385916      -1.43481949
O        2.95699884       2.33787912       1.10718956
C        4.90618816       1.29040943       0.05879998
C        6.09056749       1.11000961       0.16146994
H        1.90588927      -1.78915932      -0.97234960
H        2.66518885      -0.47490982      -2.03960919
H        2.13077925      -0.33240987       1.00660963
H        7.14144744       0.96320960       0.25034990
