15
Properties=species:S:1:pos:R:3 atomization_energy=-1549.0 smiles=C.N.C.C.C.C.N.H.H.H.H.H.H.H.H pbc="F F F"
C        1.02583960      -0.02294999      -0.00669000
N        2.46649892       0.04520998       0.00041000
C        3.23570881       1.17051953       0.00429000
C        4.53985818       0.73515973       0.01063000
C        4.45453842      -0.67638970       0.01002999
C        5.57058796      -1.65163929       0.01529999
N        3.18201877      -1.09295959       0.00345000
H        0.61312976       0.98886960       0.00098000
H        0.70165973      -0.56461976       0.88546968
H        0.71008974      -0.54793979      -0.91173964
H        2.80611888       2.16157906       0.00225000
H        5.43071772       1.34668952       0.01509000
H        5.20542779      -2.68398904       0.02320999
H        6.19761751      -1.50751941       0.90110962
H        6.19495743      -1.51989941      -0.87428964
