12
Properties=species:S:1:pos:R:3 atomization_energy=-1211.77 smiles=C.O.C.C.O.C.H.H.H.H.H.H pbc="F F F"
C        0.67131974       1.21135948      -0.27603989
O       -0.76011971       1.37261946      -0.21245992
C       -1.35869948       0.06382998      -0.29848990
C       -0.32633986      -0.90060962       0.16158994
O        0.71235971      -1.22104950      -0.77027970
C        0.95772959      -0.17483993       0.17570993
H        1.00066962       1.38086943      -1.30637948
H        1.13135961       1.96000928       0.37499986
H       -2.24796921       0.04978998       0.33764988
H       -1.65643939      -0.12103995      -1.33564952
H       -0.59528974      -1.58198943       0.94969966
H        1.66667937      -0.30326987       0.97479961
