18
Properties=species:S:1:pos:R:3 atomization_energy=-1782.73 smiles=C.C.N.C.C.C.C.H.H.H.H.H.H.H.H.H.H.H pbc="F F F"
C        0.99889958       0.12173995       0.21257992
C        2.47503908      -0.11463996      -0.08023997
N        2.74225888      -1.48588944      -0.54416976
C        2.76261899      -1.50398942      -2.01003925
C        3.24593882      -0.13753995      -2.36350917
C        2.30923902       1.03266958      -2.48509902
C        3.02057875       0.74459970      -1.18343953
H        0.82054970       1.17095960       0.46800982
H        0.66834974      -0.49513982       1.05484956
H        0.36193985      -0.12265995      -0.64395978
H        3.04815881       0.05779998       0.83832966
H        2.04791922      -2.13764922      -0.18905992
H        3.43632856      -2.28436900      -2.37405914
H        1.75954926      -1.68387927      -2.41252906
H        4.21097845      -0.11767996      -2.84861878
H        2.64442905       1.88829926      -3.06107867
H        1.24740954       0.84071968      -2.56845892
H        3.82438855       1.39519945      -0.86634966
