12
Properties=species:S:1:pos:R:3 atomization_energy=-1269.02 smiles=C.N.C.C.S.C.C.H.H.H.H.H pbc="F F F"
C        2.40589905      -0.03548999       0.68081976
N        1.63549930       0.26489991      -0.51732980
C        2.26156910       1.44581937      -0.62847976
C        2.50168904       2.56497902      -1.34202946
S        3.72657864       3.47269858      -0.47511982
C        3.89932841       2.24411914       0.76525970
C        3.02212882       1.26084945       0.48035980
H        3.08284880      -0.89366962       0.62430973
H        1.81865924      -0.13573994       1.59918934
H        1.75471926      -0.39897984      -1.27708949
H        2.07255924       2.92724873      -2.26412900
H        4.62380828       2.34601907       1.56011937
