13
Properties=species:S:1:pos:R:3 atomization_energy=-1282.99 smiles=N.C.S.N.C.C.C.H.H.H.H.H.H pbc="F F F"
N        2.53417896      -1.53072934       0.81285966
C        2.29008910      -0.60627978      -0.13587994
S        1.03319960      -0.79678969      -1.20104947
N        3.11736873       0.45616981      -0.21819992
C        4.40243808       0.60953977       0.42844983
C        4.93814793       1.94892929       0.17681993
C        5.37536785       3.04899882      -0.02835999
H        2.98965883      -1.26828944       1.67431932
H        1.85260927      -2.27695904       0.89478966
H        2.92927874       1.06610953      -1.00571959
H        5.07113811      -0.16253994       0.03332999
H        4.28524837       0.43828983       1.50291941
H        5.76056766       4.02588843      -0.20993992
