13
Properties=species:S:1:pos:R:3 atomization_energy=-1310.14 smiles=C.N.C.C.S.N.C.H.H.H.H.H.H pbc="F F F"
C        2.92583896      -1.18636959       0.47721982
N        2.37398899       0.07650997       0.03362999
C        3.10103886       1.22472950       0.01421000
C        2.53021913       2.46411893      -0.17522993
S        3.76151845       3.65415856      -0.13814994
N        5.01808798       2.59754893       0.11360996
C        4.51579839       1.36460946       0.16409994
H        2.17573913      -1.97506917       0.35951987
H        3.20564884      -1.14045956       1.53453942
H        3.80027855      -1.47010941      -0.11724995
H        1.35805944       0.12222995       0.06151997
H        1.49555941       2.72848892      -0.32892988
H        5.22322775       0.56105975       0.31688986
