23
Properties=species:S:1:pos:R:3 atomization_energy=-2191.74 smiles=C.C.C.C.C.C.C.H.H.H.H.H.H.H.H.H.H.H.H.H.H.H.H pbc="F F F"
C        1.61752940       0.64394974       1.50742945
C        2.97643895       1.32791948       1.44632946
C        3.71712859       0.97356963       0.15220994
C        5.12091802       1.61346939      -0.01811999
C        6.07701780       1.16299956       1.09889959
C        5.69804755       1.15094960      -1.37074943
C        5.03645821       3.14885866      -0.02387999
H        1.10210963       0.90827967       2.43608897
H        1.72470937      -0.44491984       1.47661943
H        0.98526960       0.95186964       0.66865973
H        3.56025853       1.01933962       2.31961917
H        2.82384893       2.40984904       1.51676937
H        3.08755882       1.26606956      -0.69896970
H        3.81548857      -0.11894996       0.09601996
H        5.76656760       1.54337934       2.07727922
H        7.09386735       1.53006937       0.91815963
H        6.12472759       0.07026997       1.16088956
H        5.05571815       1.46227944      -2.20217916
H        5.78996779       0.05969998      -1.40935940
H        6.69384712       1.57429938      -1.54415942
H        4.32376825       3.50217869      -0.77713971
H        6.01074754       3.59567852      -0.25295989
H        4.72276806       3.54195871       0.94844960
