14
Properties=species:S:1:pos:R:3 atomization_energy=-1363.19 smiles=O.C.N.O.C.C.C.H.H.H.H.H.H.H pbc="F F F"
O        4.21226837       0.36537985       2.03990921
C        4.13047847       1.49988941       1.58668935
N        4.75558828       1.90668929       0.44449983
O        4.21840834       3.08048875      -0.11919996
C        5.28799815       4.04504845      -0.17411994
C        6.00576753       4.15717840      -1.49108936
C        5.03991817       5.22694812      -1.06922960
H        3.56182854       2.30222901       2.08460919
H        5.03342821       1.17939958      -0.20334993
H        5.85220781       4.23877854       0.73373974
H        5.70772798       3.49639854      -2.29563912
H        7.06367743       4.38928808      -1.47093945
H        5.44219779       6.18479757      -0.76374969
H        4.08736843       5.28575796      -1.58298942
