18
Properties=species:S:1:pos:R:3 atomization_energy=-1779.9 smiles=C.C.C.C.N.C.C.H.H.H.H.H.H.H.H.H.H.H pbc="F F F"
C        0.98655964       0.11632995       0.22713991
C        2.48077911      -0.06199998      -0.00426000
C        2.84405890      -1.46034948      -0.49987980
C        2.95161889      -1.32364953      -2.01547926
N        3.42384876       0.04963998      -2.27339915
C        2.35509896       1.03049959      -2.41435896
C        3.02639877       0.83477968      -1.08070954
H        0.75322968       1.15928953       0.46681982
H        0.65173972      -0.50788980       1.06289962
H        0.39491983      -0.16507993      -0.65020977
H        2.99992872       0.13585995       0.94111964
H        2.12811918      -2.23045918      -0.19669993
H        3.82603854      -1.74017930      -0.09646996
H        3.66809860      -2.04866915      -2.41526912
H        1.98688925      -1.51979936      -2.49885890
H        2.60987910       1.92050922      -2.97926884
H        1.34729953       0.67536972      -2.58438910
H        3.74700864       1.56466941      -0.73597969
