12
Properties=species:S:1:pos:R:3 atomization_energy=-1268.3 smiles=C.C.C.N.C.O.S.H.H.H.H.H pbc="F F F"
C        0.86385966       0.11406996      -0.00852000
C        2.34825902       0.03817999      -0.00074000
C        3.21569869       1.05835955       0.00558000
N        4.52689845       0.66610973       0.01229999
C        4.75883831      -0.68795972       0.01181000
O        5.84105780      -1.24845949       0.01723999
S        3.18721881      -1.49757945       0.00177000
H        0.51794981       1.15298958      -0.00526000
H        0.44620982      -0.37887986       0.87527966
H        0.45610982      -0.37020985      -0.90166966
H        2.96984881       2.11222912       0.00574000
H        5.30790810       1.30616954       0.01759999
