14
Properties=species:S:1:pos:R:3 atomization_energy=-1364.59 smiles=O.C.C.C.C.N.O.H.H.H.H.H.H.H pbc="F F F"
O        1.50396936      -0.39003984       1.08479958
C        1.82352923       0.17420993      -0.17753993
C        2.74317889       1.38864943      -0.01936999
C        2.12850928       2.74424902       0.15120995
C        0.86565966       2.94765880       0.54592978
N        4.02251829       1.14496961      -0.03365999
O        4.78565810       2.30597915       0.13487995
H        2.35701895      -0.62092976       1.49711945
H        0.89874962       0.44959983      -0.69003975
H        2.32277912      -0.58729974      -0.78500967
H        2.77821886       3.59208861      -0.04171999
H        0.18698992       2.13667926       0.79310969
H        0.48652980       3.95799845       0.66370974
H        5.69861781       1.96181925       0.12486995
