14
Properties=species:S:1:pos:R:3 atomization_energy=-1483.67 smiles=O.C.N.C.C.C.C.H.H.H.H.H.H.H pbc="F F F"
O        1.39752947       0.21796992       0.75650967
C        2.41738895      -0.04965998       0.14915995
N        2.78451882      -1.26250954      -0.37414985
C        4.05642833      -1.25979950      -1.05396956
C        4.54883815       0.15060993      -0.91539964
C        3.83957838       1.31579950      -1.55763934
C        3.49906871       0.91688965      -0.14482994
H        2.17376918      -2.06319914      -0.28805988
H        4.71648804      -1.97611924      -0.55726980
H        3.90634851      -1.54773937      -2.09798918
H        5.58647777       0.24122991      -0.63195972
H        4.39573818       2.23524919      -1.69904931
H        3.10856868       1.11954950      -2.33417919
H        3.81559859       1.55390937       0.66963972
