19
Properties=species:S:1:pos:R:3 atomization_energy=-1780.47 smiles=C.C.N.C.C.C.N.H.H.H.H.H.H.H.H.H.H.H.H pbc="F F F"
C        0.97613962       0.04165998       0.09321997
C        2.48434909      -0.09422996      -0.00033000
N        3.20242884       0.95024961       0.78072969
C        4.20440825      -0.07239997       1.20406950
C        5.49431781       0.06781997       0.40248984
C        3.14241866      -1.16758959       0.90235966
N        3.68607847      -2.26583905       0.09917996
H        0.48696981      -0.80822970      -0.39546985
H        0.63543975       0.95386962      -0.40894983
H        0.62846973       0.07483997       1.13186958
H        2.80654885      -0.11031996      -1.05077958
H        2.66321890       1.31803945       1.56498937
H        4.44226806      -0.01178999       2.27462901
H        5.31663775       0.08455997      -0.67806973
H        6.17235764      -0.76313968       0.62140975
H        6.01347777       0.99455961       0.66983976
H        2.55818904      -1.47927938       1.77537926
H        4.20870823      -1.96723920      -0.72412971
H        2.97121872      -2.90464894      -0.24704990
