10
Properties=species:S:1:pos:R:3 atomization_energy=-1115.15 smiles=O.C.C.C.S.C.N.H.H.H pbc="F F F"
O        2.72987901      -1.16371959       0.14331994
C        2.18671907      -0.06888997       0.02746999
C        2.88334890       1.21166946       0.01035999
C        2.24348906       2.43220913      -0.12183995
S        3.38674875       3.71158865      -0.09917996
C        4.64178840       2.56017892       0.08343997
N        4.26760840       1.30150948       0.12785995
H        1.09074955      -0.00344000      -0.07397997
H        1.18749954       2.63609883      -0.22827991
H        5.68039799       2.85641885       0.15746994
