15
Properties=species:S:1:pos:R:3 atomization_energy=-1544.19 smiles=C.C.N.C.C.C.N.H.H.H.H.H.H.H.H pbc="F F F"
C        1.01022957       0.04718998       0.00805000
C        2.52029898       0.03192999      -0.01941999
N        3.12278881       1.18226959       0.00328000
C        4.49030840       1.15085952      -0.02283999
C        5.21642792       0.02726999      -0.00914999
C        4.57956805      -1.31759951       0.02882999
N        3.14821875      -1.18777950      -0.07151998
H        0.60397978      -0.96748964       0.00406000
H        0.63910972       0.58350979      -0.87003969
H        0.67013971       0.56429981       0.90990966
H        4.98012828       2.12075918      -0.04884998
H        6.29837742       0.08206997      -0.02443999
H        4.94755787      -1.92615929      -0.80327971
H        4.84136829      -1.82522931       0.96281962
H        2.60162887      -2.03385920       0.01394999
