15
Properties=species:S:1:pos:R:3 atomization_energy=-1544.22 smiles=C.C.C.C.N.C.N.H.H.H.H.H.H.H.H pbc="F F F"
C        0.96806963      -0.01203999      -0.12419995
C        2.47097907       0.00918999       0.08069997
C        3.16647870      -1.20757955      -0.52086978
C        4.02207848      -0.84532964      -1.48601940
N        4.00887853       0.50557980      -1.64413937
C        3.15264868       1.09948955      -0.76193972
N        2.92353896       2.35490896      -0.60198977
H        0.51157980       0.89555965       0.28503988
H        0.51624979      -0.87479967       0.37679986
H        0.70268975      -0.05823998      -1.18672955
H        2.73856904       0.13163995       1.13408958
H        2.98940877      -2.22128921      -0.19297992
H        4.66295798      -1.47508942      -2.08726914
H        4.62562810       0.98621962      -2.28094915
H        3.48956869       2.88748890      -1.26628947
