15
Properties=species:S:1:pos:R:3 atomization_energy=-1508.08 smiles=C.C.N.N.C.C.C.H.H.H.H.H.H.H.H pbc="F F F"
C        1.06762957       0.11749995       0.18001993
C        2.49213906      -0.10667996      -0.19039993
N        3.28887879       0.84359966      -0.57969977
N        4.54084833       0.35336986      -0.87606965
C        5.25666769       0.03176999       0.35469987
C        4.52853810      -1.04446960      -0.41640985
C        3.14531871      -1.43976947      -0.05147998
H        0.50796979      -0.81789966       0.10184996
H        0.62167975       0.85953968      -0.48755982
H        1.01724962       0.48254981       1.20926954
H        6.33633763       0.06711997       0.28153989
H        4.85506787       0.40461983       1.28890945
H        5.08136812      -1.75657932      -1.00739962
H        3.06749874      -1.81073932       0.97272962
H        2.70852901      -2.14796907      -0.75900971
