14
Properties=species:S:1:pos:R:3 atomization_energy=-1411.7 smiles=O.C.O.C.C.C.N.H.H.H.H.H.H.H pbc="F F F"
O        2.36470900      -1.01061962      -1.15532957
C        2.12949918       0.22192991      -0.64678974
O        1.28819952       0.97552961      -1.11460961
C        2.94252890       0.53502976       0.58751977
C        4.38536837       0.13158995       0.47801980
C        5.05150825      -0.61475975       1.60393934
N        4.71678832      -1.29131946       0.34923987
H        3.07620870      -1.47483948      -0.65120976
H        2.44950896       0.04864998       1.43730937
H        2.89901892       1.61688936       0.75794973
H        4.97045794       0.81678965      -0.12564995
H        4.46682847      -0.90483964       2.46865913
H        6.10247752      -0.43426982       1.79583928
H        5.57365783      -1.42518940      -0.20087992
