12
Properties=species:S:1:pos:R:3 atomization_energy=-1241.52 smiles=N.C.C.O.S.C.C.H.H.H.H.H pbc="F F F"
N        0.97442963      -0.02625999      -0.00500000
C        2.31892904       0.02962999      -0.00265000
C        3.02863871       1.21101959      -0.00356000
O        2.55473891       2.45504914      -0.00581000
S        4.71246790       0.92776961      -0.00075000
C        4.49044819      -0.76960970       0.00188000
C        3.15578869      -1.11521950       0.00066000
H        0.42186982       0.82808968      -0.00020000
H        0.44218984      -0.88824968       0.00512000
H        3.34960862       3.01527878      -0.00639000
H        5.34561799      -1.43098948       0.00405000
H        2.80896896      -2.14084903       0.00201000
