18
Properties=species:S:1:pos:R:3 atomization_energy=-1768.04 smiles=C.C.C.N.C.C.C.H.H.H.H.H.H.H.H.H.H.H pbc="F F F"
C        1.42854944      -0.04207998       1.18156950
C        2.23713915       0.21144992      -0.08047997
C        3.32678878       1.20890947       0.16380994
N        3.75742841       2.09890918      -0.91000965
C        3.02743888       2.68902885       0.21219991
C        3.79558847       3.53157856       1.12635955
C        3.53678870       3.71467845       2.42831894
H        0.67045973      -0.80917966       1.00010964
H        0.92079965       0.87003969       1.50873943
H        2.07192917      -0.37949984       1.99975927
H        1.56187938       0.54682978      -0.87791968
H        2.68775887      -0.72952972      -0.41829984
H        4.11738829       0.81596970       0.79364968
H        3.14958866       2.02482914      -1.72456933
H        2.01987916       3.02897886      -0.00301000
H        4.65133813       4.05261838       0.69868973
H        2.70045895       3.22278869       2.91265894
H        4.16615837       4.36011808       3.03209893
