17
Properties=species:S:1:pos:R:3 atomization_energy=-1752.81 smiles=C.C.C.C.C.C.C.H.H.H.H.H.H.H.H.H.H pbc="F F F"
C        0.91384963      -0.15391994      -0.15068994
C        2.33118906       0.32697987       0.10861996
C        3.57944858      -0.45130981      -0.52463980
C        4.33081839       0.90628966      -0.16429993
C        2.98755893       1.45211945      -0.82429966
C        3.00493875       0.88360962      -2.20700903
C        3.39858863      -0.38412983      -2.00786920
H        0.19205992       0.59700976       0.18691993
H        0.72007972      -1.07767954       0.40400985
H        0.71530972      -0.35272986      -1.20768957
H        2.42204901       0.52286979       1.18860954
H        3.91936855      -1.38552948      -0.08205997
H        4.48888828       1.12260952       0.89842967
H        5.26203781       1.11114952      -0.70343974
H        2.71195895       2.49713900      -0.69222974
H        2.75761879       1.37888951      -3.13094869
H        3.54912871      -1.16924955      -2.73028905
