14
Properties=species:S:1:pos:R:3 atomization_energy=-1470.43 smiles=O.C.C.N.C.C.C.H.H.H.H.H.H.H pbc="F F F"
O        0.88966967      -0.09534996      -0.07468997
C        2.11676906      -0.03823999      -0.04663998
C        2.87776885       1.26112954       0.19120992
N        4.22081836       1.21194955      -0.40554985
C        4.99437793       0.07051997       0.07022997
C        4.23791810      -1.21717949      -0.03443999
C        2.90378874      -1.29341949      -0.12781995
H        2.31935902       2.07184918      -0.28751989
H        2.92802894       1.45254942       1.26828944
H        4.71697807       2.07377914      -0.18465992
H        5.31918781       0.22218991       1.10598960
H        5.89721766      -0.00362000      -0.54597980
H        4.82306822      -2.13256904      -0.04168999
H        2.35869898      -2.22343907      -0.21627992
