19
Properties=species:S:1:pos:R:3 atomization_energy=-1901.3 smiles=C.C.C.C.C.C.C.H.H.H.H.H.H.H.H.H.H.H.H pbc="F F F"
C        1.00863963      -0.08332997      -0.01571000
C        2.49903906      -0.05717998      -0.03733998
C        3.25484864      -0.69011974      -1.17706955
C        3.22229866       0.81321967      -1.03701958
C        4.44645827       1.57350933      -0.61545978
C        5.23052769       2.12930917      -1.77070936
C        5.44951791       3.43440857      -1.97362924
H        0.62780976       0.73408972       0.60458979
H        0.65403972      -1.02778962       0.40829982
H        0.58006976       0.02256999      -1.01787963
H        2.91545881      -0.15538994       0.95915962
H        2.69276890      -1.13409955      -1.99113926
H        4.17332836      -1.21641947      -0.94177961
H        2.61674906       1.37787943      -1.73876927
H        5.11377806       0.92943966      -0.02927999
H        4.13241839       2.38343904       0.05441998
H        5.63825766       1.40726946      -2.47519905
H        5.06175795       4.19010839      -1.29686949
H        6.02384757       3.77574842      -2.82937878
