11
Properties=species:S:1:pos:R:3 atomization_energy=-1094.86 smiles=O.S.O.O.C.C.C.H.H.H.H pbc="F F F"
O        0.95560963       0.10436996      -0.21237992
S        2.39603895      -0.01221000      -0.14824994
O        3.22184876      -0.08486997      -1.33365951
O        2.77036884      -1.26987951       0.82294969
C        3.35523863      -0.87558965       2.05964921
C        3.49203850       0.61136975       2.03366919
C        3.02512879       1.18704950       0.92137963
H        4.33148808      -1.35774945       2.16096917
H        2.70446900      -1.19484957       2.87853896
H        3.93302851       1.16121948       2.85392884
H        3.01295885       2.23386919       0.67265975
