12
Properties=species:S:1:pos:R:3 atomization_energy=-1246.53 smiles=N.C.C.S.C.C.O.H.H.H.H.H pbc="F F F"
N        0.98410963      -0.00697000      -0.07505997
C        2.33490918       0.00940999      -0.03572999
C        3.07549890       1.16855955      -0.03044999
S        4.76208834       0.85756967       0.03767998
C        4.50370820      -0.83710970       0.05020998
C        3.16600886      -1.14253953       0.00274000
O        2.74852881      -2.42115903      -0.01897999
H        0.45935981       0.85722965       0.03863999
H        0.44247983      -0.81919967       0.20122992
H        2.72263887       2.18952904      -0.05721998
H        5.34008790      -1.52048936       0.08110996
H        1.79093926      -2.43401910      -0.17295994
