11
Properties=species:S:1:pos:R:3 atomization_energy=-1272.56 smiles=C.C.C.C.C.C.S.H.H.H.H pbc="F F F"
C        0.85544964       0.15448994      -0.00445000
C        2.05373924       0.09077997      -0.00092000
C        3.47813859       0.01404999       0.00339000
C        4.32667814       1.10056952       0.00503000
C        5.69965793       0.71299969       0.00962999
C        5.84705774      -0.65649976       0.01126999
S        4.33776810      -1.46325937       0.00724999
H       -0.20911992       0.20687992      -0.00757000
H        3.98279832       2.12791908       0.00309000
H        6.53436720       1.40328944       0.01165000
H        6.76681728      -1.22536954       0.01463999
