14
Properties=species:S:1:pos:R:3 atomization_energy=-1400.63 smiles=O.N.C.C.C.C.O.H.H.H.H.H.H.H pbc="F F F"
O        1.19328953      -0.02686999       0.40313984
N        2.38234897       0.04784998      -0.35129987
C        3.20412879       1.19931949      -0.09363997
C        4.48446844       0.83066970      -0.82030967
C        4.58351805      -0.68734971      -0.64231975
C        3.15892870      -1.10592955      -0.36348986
O        2.76986898      -2.23196913      -0.09815996
H        1.10889961      -0.99104962       0.56354976
H        3.36886856       1.29069949       0.98565964
H        2.72845889       2.10399921      -0.47919980
H        4.39079803       1.06528958      -1.88826923
H        5.36019769       1.36118948      -0.43573984
H        4.96965805      -1.18034948      -1.53705945
H        5.19877786      -0.93771966       0.22679991
