15
Properties=species:S:1:pos:R:3 atomization_energy=-1558.05 smiles=C.N.C.N.C.C.C.H.H.H.H.H.H.H.H pbc="F F F"
C        0.95729962       0.05609997      -0.00771000
N        2.39484896      -0.02472999      -0.00087000
C        3.26175873       1.02632957       0.00313000
N        4.50990798       0.61581973       0.00917000
C        4.44534801      -0.75898971       0.00912000
C        5.68340779      -1.56791944       0.01503999
C        3.13160879      -1.17545955       0.00281000
H        0.64802975       1.10436951       0.00283000
H        0.57785978      -0.45224981       0.88230967
H        0.58793978      -0.43173982      -0.91327961
H        2.94145877       2.06001914       0.00140000
H        5.45829803      -2.63894892       0.02336999
H        6.28344749      -1.33804944       0.90081962
H        6.28287772      -1.35155951      -0.87450967
H        2.68222903      -2.15813902       0.00070000
