15
Properties=species:S:1:pos:R:3 atomization_energy=-1465.07 smiles=O.C.C.N.C.C.N.H.H.H.H.H.H.H.H pbc="F F F"
O        3.31508869      -0.49587981      -1.11318962
C        2.12232918      -0.31869986      -0.34878986
C        2.19632911       1.01653962       0.40045983
N        3.31710860       0.99452959       1.35015945
C        3.57690861       2.33181913       1.89844929
C        4.69587813       2.33597907       2.86594889
N        5.58068778       2.36091898       3.61737851
H        3.26564867      -1.38491947      -1.50582942
H        2.02079916      -1.15762957       0.34789986
H        1.26962945      -0.32090988      -1.03466962
H        1.25638950       1.19230947       0.93406963
H        2.34418917       1.81941926      -0.33173987
H        4.14435846       0.66891975       0.83950969
H        2.67741884       2.70156896       2.40435907
H        3.81241846       3.03063869       1.08694957
