17
Properties=species:S:1:pos:R:3 atomization_energy=-1673.28 smiles=C.C.C.N.C.N.C.H.H.H.H.H.H.H.H.H.H pbc="F F F"
C        0.91522963      -0.01250999       0.06349998
C        2.44591904       0.01594999       0.07942997
C        2.95848886       1.30371953      -0.56843981
N        4.18222833       1.06764963      -1.30613951
C        4.17907823      -0.03174999      -2.11065912
N        3.59541862      -1.14671952      -1.87160932
C        3.03169873      -1.27130947      -0.52115980
H        0.50563979       0.88980965       0.53042976
H        0.53714979      -0.87501963       0.62295976
H        0.52867978      -0.07479997      -0.95922964
H        2.74080899       0.03283999       1.13746957
H        3.13279879       2.06796921       0.19715993
H        2.21342909       1.71788937      -1.25983950
H        4.55888800       1.90648919      -1.73693936
H        4.72197826       0.12310995      -3.05869868
H        2.27484904      -2.06433917      -0.54204981
H        3.82827849      -1.64310935       0.13638995
