15
Properties=species:S:1:pos:R:3 atomization_energy=-1573.5 smiles=C.C.C.C.C.C.S.H.H.H.H.H.H.H.H pbc="F F F"
C        0.81377966       0.14978994      -0.00794000
C        2.30128907       0.07251997      -0.00054000
C        3.21532877       1.10490962       0.00439000
C        4.55976812       0.63360978       0.01106000
C        4.63106836      -0.74411970       0.01092000
C        5.85312781      -1.59736940       0.01679999
S        3.07501871      -1.45301939       0.00217000
H        0.47616981       1.19157948       0.00079000
H        0.39415984      -0.34501987       0.87419968
H        0.40449984      -0.32706988      -0.90467966
H        2.93595896       2.15163923       0.00341000
H        5.43182798       1.27647948       0.01582999
H        5.61776786      -2.66641896       0.02687999
H        6.46081768      -1.37895941       0.90108962
H        6.45823735      -1.39462943      -0.87294964
