9
Properties=species:S:1:pos:R:3 atomization_energy=-926.22 smiles=O.S.O.C.C.C.C.H.H pbc="F F F"
O        1.06939955       0.08906997      -0.17949992
S        2.47779908      -0.04105999       0.07310997
O        3.18005866      -0.64847972       1.16956951
C        3.08511877      -0.89392965      -1.34327952
C        3.50043861      -1.47458942      -2.31082921
C        3.06516871       1.62014936       0.06224997
C        3.46677863       2.75277883       0.05314998
H        3.86569845      -1.99371922      -3.16605882
H        3.81986853       3.75810844       0.05041998
