16
Properties=species:S:1:pos:R:3 atomization_energy=-1551.39 smiles=C.C.C.C.C.O.H.H.H.H.H.H.H.H.H.H pbc="F F F"
C        1.05693956      -0.04430999      -0.01767999
C        2.54722903      -0.02841999      -0.05297998
C        3.28499869      -0.61763974      -1.22832950
C        3.27248861       0.87775964      -1.01836959
C        4.50895820       1.59620943      -0.59562976
O        5.30831788       1.84811929      -1.74117929
H        0.68846975       0.75254971       0.63548977
H        0.70042975      -1.00089962       0.37635986
H        0.61953972       0.09947996      -1.01091957
H        2.97127877      -0.17932993       0.93396964
H        2.70916892      -1.01505957      -2.05705916
H        4.19658825      -1.16804959      -1.02395961
H        2.68074885       1.47838940      -1.70111930
H        5.10212792       1.02073961       0.12267995
H        4.25272843       2.55605911      -0.13752995
H        5.46356772       0.98808959      -2.16688912
