17
Properties=species:S:1:pos:R:3 atomization_energy=-1563.53 smiles=C.C.C.S.C.O.O.H.H.H.H.H.H.H.H.H.H pbc="F F F"
C        0.98471964      -0.01115000      -0.04568998
C        2.50824890       0.03810998      -0.03413999
C        3.09268872      -0.76918969      -1.18767957
S        3.12783871       1.73035932      -0.01389999
C        2.57439905       2.46661904      -1.53617945
O        2.46678910       2.43456893       1.06958955
O        4.57698822       1.67546933      -0.06426998
H        0.56251980       0.55768980       0.78876972
H        0.63260972      -1.04428956       0.04448998
H        0.57350977       0.40057985      -0.97243962
H        2.86237891      -0.39743984       0.90849964
H        2.75984890      -0.38792985      -2.15796921
H        2.78375880      -1.81772927      -1.11862950
H        4.18698831      -0.74382971      -1.17631949
H        2.99670872       1.91867919      -2.37901896
H        2.93285881       3.49859862      -1.55625933
H        1.48449935       2.45966907      -1.56757942
