12
Properties=species:S:1:pos:R:3 atomization_energy=-1279.43 smiles=O.C.C.C.C.C.N.H.H.H.H.H pbc="F F F"
O        2.32841897      -0.77260967      -0.93670964
C        2.33929899       0.04767998      -0.02748999
C        1.48200948      -0.11784996       1.12457960
C        0.76863968      -0.26044991       2.08146918
C        3.28856867       1.18763958      -0.02381999
C        3.31172864       2.13469922      -1.19767959
N        2.70860900       2.53835908       0.06551998
H        0.12958995      -0.38855985       2.92396893
H        4.22028821       1.01803960       0.50221979
H        2.62845901       1.95502927      -2.01990919
H        4.24994824       2.60278909      -1.46709947
H        3.32942867       3.16254864       0.58400978
