16
Properties=species:S:1:pos:R:3 atomization_energy=-1684.45 smiles=C.C.C.C.C.C.N.H.H.H.H.H.H.H.H.H pbc="F F F"
C        0.92967963      -0.08913997      -0.00229000
C        2.41026917       0.03372999      -0.00290000
C        3.23478881       1.14787949      -0.00055000
C        2.81485888       2.57400895       0.00355000
C        4.57385830       0.66678976      -0.00306000
C        4.52726836      -0.70700972      -0.00678000
N        3.21182868      -1.08321960      -0.00671000
H        0.44733982       0.89298966       0.01049000
H        0.59156975      -0.64255972       0.87966966
H        0.58939977      -0.62080977      -0.89667962
H        3.68161851       3.24266861       0.00939000
H        2.21234912       2.79298882       0.89089966
H        2.21885901       2.79979899      -0.88649964
H        5.47654764       1.26448946      -0.00227000
H        5.31563802      -1.44752942      -0.00951999
H        2.88006885      -2.03797926      -0.00912000
