16
Properties=species:S:1:pos:R:3 atomization_energy=-1534.68 smiles=O.C.C.N.C.C.O.H.H.H.H.H.H.H.H.H pbc="F F F"
O        1.00971961       0.03626998      -0.04723999
C        2.42917913       0.01792999      -0.00382000
C        3.00041874       1.10460960       0.89426967
N        4.36267824       0.63752974       1.20073948
C        4.22630833      -0.82007968       1.38940945
C        2.96225894      -1.26188957       0.64115972
O        3.22127874      -2.24668913      -0.35676987
H        0.73629970      -0.79236967      -0.48264979
H        2.79942882       0.12816995      -1.03115957
H        2.41466907       1.21490952       1.81456933
H        3.01249885       2.07950920       0.39740984
H        4.95705814       0.81213969       0.38932984
H        5.12756796      -1.33989941       1.04782958
H        4.11133839      -1.02128963       2.46077908
H        2.23093912      -1.68632928       1.33752952
H        3.96721838      -1.93807930      -0.90020968
