14
Properties=species:S:1:pos:R:3 atomization_energy=-1460.63 smiles=O.C.C.C.C.C.N.H.H.H.H.H.H.H pbc="F F F"
O        2.87208887      -1.21663950      -0.66086976
C        2.33042904      -0.20836992       0.18487993
C        2.92094878       1.15365951      -0.18077992
C        4.39073848       1.23865957       0.13657994
C        4.93360799       2.14768923       0.96028962
C        6.33044771       2.19597913       1.22366958
N        7.46714703       2.24454911       1.44714941
H        2.48367890      -2.06378922      -0.38172985
H        2.54284906      -0.46811981       1.22735954
H        1.24541952      -0.19339992       0.03974998
H        2.36844906       1.93741920       0.35034987
H        2.79801879       1.33054953      -1.25586945
H        5.02530819       0.50446979      -0.36151985
H        4.31860808       2.88905890       1.45810941
