16
Properties=species:S:1:pos:R:3 atomization_energy=-1545.83 smiles=C.C.C.C.C.O.H.H.H.H.H.H.H.H.H.H pbc="F F F"
C        1.03088957       0.00661000      -0.05184998
C        2.52133909      -0.01134999      -0.01209000
C        3.34841862      -0.74892970      -1.04223962
C        2.73033901      -1.51007944      -2.16534914
C        3.31417878       0.75720970      -1.03900959
O        4.49638807       1.41302943      -0.56058978
H        0.64707973       0.73335973       0.67157976
H        0.63384975      -0.97788960       0.21463992
H        0.63966977       0.28128990      -1.03664960
H        2.88118895      -0.03052999       1.01056959
H        4.25064820      -1.24023954      -0.69436976
H        1.86887922      -0.99575964      -2.60193899
H        2.40155895      -2.49392910      -1.81576929
H        3.46592853      -1.66211936      -2.96159884
H        2.77033882       1.25430953      -1.83673928
H        4.92889797       0.91904961       0.15601993
