15
Properties=species:S:1:pos:R:3 atomization_energy=-1528.46 smiles=C.C.C.C.N.C.N.H.H.H.H.H.H.H.H pbc="F F F"
C        1.59397932      -0.56457977      -1.01245961
C        2.05184915       0.23049990      -0.03519999
C        3.17108879       1.22396948      -0.11259995
C        3.75272849       1.62433932      -1.49134939
N        3.99606843       3.10284883      -1.42877944
C        3.32111865       3.46103860      -0.38084984
N        2.67659902       2.50792894       0.34320987
H        0.77031970      -1.24788947      -0.82453969
H        2.00881923      -0.56341980      -2.01473917
H        1.57426935       0.14736994       0.93963965
H        3.98696835       0.90209964       0.54657978
H        3.06760875       1.43204940      -2.32350911
H        4.69363793       1.09907951      -1.68519935
H        3.25611862       4.49307798      -0.00029000
H        2.60553900       2.65040905       1.34240948
