14
Properties=species:S:1:pos:R:3 atomization_energy=-1282.03 smiles=C.N.S.O.O.C.C.H.H.H.H.H.H.H pbc="F F F"
C        4.35990815      -1.06707962       0.59959975
N        3.59471865      -0.18760993      -0.29077988
S        3.48837870       1.44270938       0.16478994
O        2.60475904       2.04848924      -0.80781966
O        3.14100889       1.44610943       1.56960943
C        5.08085791       2.10245923      -0.01364999
C        5.73540771       1.98913916      -1.17719950
H        4.34298833      -2.08016917       0.18820993
H        3.91118848      -1.10529960       1.59471941
H        5.40162797      -0.74619973       0.66627974
H        2.65015899      -0.52392980      -0.48716981
H        5.50041767       2.60735906       0.84356970
H        5.29174780       1.48835939      -2.03389919
H        6.72883738       2.40731917      -1.29638943
