15
Properties=species:S:1:pos:R:3 atomization_energy=-1525.86 smiles=C.C.C.N.N.C.C.H.H.H.H.H.H.H.H pbc="F F F"
C        0.91702964       0.06416998       0.06213997
C        2.42741912       0.00739000       0.13313995
C        3.04651891       1.09500953      -0.67763976
N        3.77038840       0.66287977      -1.65614933
N        3.74829856      -0.76395969      -1.62977933
C        3.00953875      -1.13789954      -0.63072973
C        2.76764896      -2.55962909      -0.26131990
H        0.54232977       1.00144958       0.48687981
H        0.46908983      -0.76628971       0.61731978
H        0.55754976       0.00243000      -0.97160964
H        2.80172882       0.03488998       1.15875951
H        2.89095896       2.15601919      -0.43924983
H        3.33411876      -3.22484872      -0.91821963
H        1.70308938      -2.78796895      -0.35416985
H        3.08148874      -2.72326894       0.77282970
