13
Properties=species:S:1:pos:R:3 atomization_energy=-1335.03 smiles=O.C.C.N.N.C.C.H.H.H.H.H.H pbc="F F F"
O        1.06717954       0.00319000       0.07567997
C        2.28557918       0.03517998       0.01209000
C        3.01248876       1.33995947       0.04589998
N        4.30039834       1.41967949      -0.08432996
N        4.58720814       2.73784889       0.05902997
C        3.40454870       3.57762851      -0.11971995
C        2.28305915       2.62312901       0.24955990
H        2.93134887      -0.85222964      -0.07454997
H        5.38484794       3.03794873      -0.50458981
H        3.31576872       3.88728842      -1.16712959
H        3.42567867       4.46763845       0.51483979
H        1.41916941       2.71207880      -0.41240983
H        1.98533917       2.70904881       1.29856944
