14
Properties=species:S:1:pos:R:3 atomization_energy=-1401.66 smiles=C.C.O.C.C.C.H.H.H.H.H.H.H.H pbc="F F F"
C        0.96674961      -0.02364999      -0.12146995
C        2.43614902       0.09035996       0.07367997
O        3.21685865      -0.66522972      -0.85648969
C        3.31141878       0.76891970      -0.95329960
C        4.47935823       1.51817940      -0.47906982
C        5.75939786       1.14990950      -0.62640976
H        0.45997982       0.82838970       0.34170986
H        0.59357976      -0.93909966       0.34797985
H        0.69258975      -0.04818999      -1.18124954
H        2.73315881       0.07057997       1.11374954
H        2.82720898       1.22203952      -1.81278926
H        4.27136814       2.45703903       0.02919999
H        6.01843759       0.22059991      -1.12463953
H        6.56714755       1.76530935      -0.24616990
