11
Properties=species:S:1:pos:R:3 atomization_energy=-1069.38 smiles=O.S.O.O.C.C.C.H.H.H.H pbc="F F F"
O        1.13898960       0.31809988      -0.06464997
S        2.72479883       0.00538000       0.00017000
O        2.98096880      -0.62806978       1.27371949
O        3.02286891      -0.64153973      -1.25947955
C        3.31418862       1.70617930       0.00000000
C        4.75818831       1.70617930       0.00000000
C        5.94834754       1.70617930       0.00000000
H        0.75698974      -0.23727990      -0.77894968
H        2.90754898       2.19056914       0.89195964
H        2.91086890       2.18953913      -0.89415965
H        7.01482711       1.69881930       0.00174000
