8
Properties=species:S:1:pos:R:3 atomization_energy=-825.76 smiles=O.S.O.C.C.C.N.H pbc="F F F"
O        1.06164957       0.06011997      -0.17647993
S        2.47400906      -0.02950999       0.08599996
O        3.17136863      -0.67336974       1.16805956
C        3.08810890      -0.87381967      -1.33807948
C        3.50528867      -1.45177944      -2.30740911
C        3.06147887       1.64499932       0.07769997
N        3.45964876       2.74040905       0.05048998
H        3.87065853      -1.97046917      -3.16279870
