15
Properties=species:S:1:pos:R:3 atomization_energy=-1524.08 smiles=C.C.C.C.N.C.N.H.H.H.H.H.H.H.H pbc="F F F"
C        0.95546965      -0.03214998       0.11772995
C        2.46746914       0.04687998      -0.03295999
C        3.16753874       1.10456960       0.85821967
C        4.16140848      -0.01268000       1.21105958
N        3.14787886      -1.00121958       0.78914967
C        2.88430877       0.03469999      -1.43311941
N        3.23275880       0.01528000      -2.53961897
H        0.65299973      -0.06220998       1.17119957
H        0.55030981      -0.92881963      -0.36607985
H        0.47105981       0.84105969      -0.33441988
H        2.57379901       1.45035944       1.71347937
H        3.59581857       1.97715923       0.35611986
H        5.06794814      -0.01892999       0.59465974
H        4.44927833      -0.07309997       2.26399905
H        3.52228873      -1.78980933       0.26033990
