14
Properties=species:S:1:pos:R:3 atomization_energy=-1408.72 smiles=O.C.C.C.C.C.N.H.H.H.H.H.H.H pbc="F F F"
O        1.18687956       0.29861988       0.03191999
C        2.55507906      -0.07806996      -0.03455999
C        2.81112892      -0.77902967      -1.29721947
C        3.01311883      -1.36208942      -2.32847903
C        3.40469858       1.15889955      -0.09375996
C        3.64579858       1.96959925       1.15914949
N        4.72213824       1.19805947       0.55384976
H        1.05420959       0.67564974       0.91606964
H        2.79172893      -0.71425970       0.82523966
H        3.18713882      -1.88008928      -3.24319876
H        3.28666862       1.71613932      -1.01813959
H        3.28015873       1.59874939       2.10846913
H        3.71167848       3.04727868       1.07378961
H        5.35822800       1.79450924       0.02008999
