12
Properties=species:S:1:pos:R:3 atomization_energy=-1278.89 smiles=O.C.C.N.C.C.O.H.H.H.H.H pbc="F F F"
O        2.50305895      -0.47259982      -1.33161942
C        2.41157902       0.03216999      -0.00067000
C        2.82330895       1.45946948      -0.00370000
N        2.07895924       2.54013903       0.14859994
C        2.98011895       3.57066871       0.07444998
C        4.24630811       3.07346890      -0.09866996
O        4.16412836       1.71508937      -0.13930994
H        2.16919921      -1.38389943      -1.30563951
H        3.06409883      -0.55929980       0.64839973
H        1.37720949      -0.06715998       0.34216986
H        2.67200885       4.60400836       0.15099994
H        5.23173787       3.50170859      -0.20354992
