20
Properties=species:S:1:pos:R:3 atomization_energy=-1938.48 smiles=C.C.N.C.C.C.C.H.H.H.H.H.H.H.H.H.H.H.H.H pbc="F F F"
C        0.96743961       0.01126000      -0.02748999
C        2.49361899       0.00017000       0.00574000
N        2.99114885       0.09140996      -1.37118950
C        3.06336883       1.12927952       0.87489965
C        4.48019799       0.67230976       1.19772955
C        4.37799828      -0.84303967       1.34006948
C        3.05424882      -1.25784949       0.68690971
H        0.54865981      -0.06754998       0.98239964
H        0.57635979      -0.82926964      -0.61228974
H        0.58508976       0.93852965      -0.46942982
H        4.00979853       0.07177997      -1.38699944
H        2.71737902       0.98493961      -1.77744925
H        2.49051909       1.22725950       1.80543923
H        3.05288876       2.10526919       0.37776986
H        5.16195818       0.92620963       0.37718984
H        4.86902784       1.14599950       2.10467912
H        5.23253776      -1.33896945       0.86892968
H        4.37447826      -1.13096951       2.39780906
H        3.19961863      -2.09002914      -0.01323999
H        2.37032917      -1.62038933       1.46319944
