17
Properties=species:S:1:pos:R:3 atomization_energy=-1676.62 smiles=C.C.C.C.N.C.N.H.H.H.H.H.H.H.H.H.H pbc="F F F"
C        0.91032967      -0.05696998       0.29552990
C        2.40026904      -0.05148998      -0.02761999
C        2.82021890       1.26714954      -0.67552976
C        4.01688853       1.19422959      -1.61683940
N        4.61914823      -0.12117995      -1.83045926
C        3.92450855      -1.14668950      -1.51295942
N        2.70523886      -1.15898951      -0.90878963
H        0.64739975       0.77780971       0.95486961
H        0.62140975      -0.98938959       0.79424966
H        0.30626987       0.02514999      -0.61552974
H        2.96288876      -0.18574993       0.90539962
H        3.02821883       1.99339927       0.11885995
H        1.97418916       1.70026932      -1.23151948
H        4.79592798       1.87088929      -1.25373952
H        3.71802865       1.58783935      -2.59790900
H        4.31229828      -2.15760913      -1.71156935
H        2.41598902      -2.06480914      -0.55114975
