14
Properties=species:S:1:pos:R:3 atomization_energy=-1435.95 smiles=O.C.N.C.C.C.O.H.H.H.H.H.H.H pbc="F F F"
O        1.42784947       0.04686998       0.91553962
C        2.39342909       0.03416999       0.16114994
N        2.98454887      -1.14342950      -0.19316992
C        4.02231845      -1.27059953      -1.17565952
C        4.90018823      -0.04476998      -1.15524958
C        3.99291832       1.15606953      -1.30959948
O        2.93517875       1.17654949      -0.33564987
H        2.50377910      -1.96382920       0.15337993
H        4.59724840      -2.17348909      -0.94956964
H        3.54264859      -1.40239947      -2.15151912
H        5.42608794       0.01400000      -0.19450993
H        5.64916795      -0.07910997      -1.95219925
H        4.57088837       2.07711924      -1.18269956
H        3.53487855       1.18932957      -2.30439905
