14
Properties=species:S:1:pos:R:3 atomization_energy=-1380.64 smiles=O.N.C.O.C.C.C.H.H.H.H.H.H.H pbc="F F F"
O        0.98609964       1.96137919      -0.51277979
N        2.35391906       2.08360921      -0.17870992
C        3.11926878       0.95782964      -0.33865987
O        2.64841891      -0.12892995      -0.65974972
C        4.57837806       1.16846960      -0.14797995
C        5.53033760      -0.00430000      -0.11044996
C        5.52276766       0.91188964      -1.29936946
H        0.91714962       1.01496961      -0.76919973
H        2.73344899       3.02120882      -0.12705995
H        4.83290813       1.99645916       0.50781981
H        5.12578801      -1.00325962      -0.23704990
H        6.37330769       0.04684998       0.56868981
H        6.36329771       1.58313943      -1.42972947
H        5.11461781       0.52456978      -2.22718922
