14
Properties=species:S:1:pos:R:3 atomization_energy=-1486.17 smiles=C.C.C.N.C.C.C.H.H.H.H.H.H.H pbc="F F F"
C        0.99999962       0.00000000       0.00000000
C        2.19015911       0.00000000       0.00000000
C        3.63415853       0.00000000       0.00000000
N        4.14679825      -1.23185950       0.63884975
C        4.58362806      -0.85331965       1.99671919
C        4.69159808       0.62775973       1.97462922
C        4.15213833       1.10771958       0.85178964
H       -0.06500998      -0.00874999       0.00726000
H        4.03129841       0.08022997      -1.01759960
H        4.97597794      -1.51151936       0.11892995
H        5.54372781      -1.32226954       2.23286920
H        3.84407846      -1.17539950       2.73544897
H        5.10571809       1.21894947       2.77815881
H        4.06811834       2.15458923       0.59332976
