16
Properties=species:S:1:pos:R:3 atomization_energy=-1555.85 smiles=C.C.C.C.C.O.H.H.H.H.H.H.H.H.H.H pbc="F F F"
C        0.89492964      -0.16825994       0.10687996
C        2.37923899       0.00792000       0.16970993
C        3.09010888       1.14194958       0.00615000
C        2.49883896       2.50460902      -0.23865990
C        4.59652825       1.12313955       0.08727996
O        5.13646819       1.48036945      -1.17578960
H        0.65484976      -0.98694962      -0.57923977
H        0.36176985       0.71636970      -0.24605991
H        0.51063980      -0.43147982       1.09689962
H        2.91916884      -0.91905964       0.36405985
H        1.41299940       2.53320900      -0.12693995
H        2.74060889       2.84758877      -1.24973956
H        2.90737891       3.22629862       0.47707980
H        4.98786779       0.13651995       0.35697987
H        4.95347806       1.83673928       0.83663967
H        4.67620841       0.93515964      -1.83654927
