12
Properties=species:S:1:pos:R:3 atomization_energy=-1246.02 smiles=N.C.C.S.C.O.C.H.H.H.H.H pbc="F F F"
N        1.01371963       0.00097000      -0.00982000
C        2.35700911       0.03515999      -0.00234000
C        3.08953886       1.19637958       0.00087000
S        4.77250810       0.88055963       0.01106000
C        4.52063811      -0.81067971       0.01081000
O        5.56941765      -1.62860939       0.01787000
C        3.17658886      -1.12355955       0.00283000
H        0.44281981       0.84092968      -0.00091000
H        0.48178982      -0.86309963       0.00056000
H        2.73376895       2.21564910      -0.00210000
H        5.22563801      -2.53693896       0.01670000
H        2.80192892      -2.13777917       0.00084000
