15
Properties=species:S:1:pos:R:3 atomization_energy=-1524.55 smiles=C.C.N.N.C.C.C.H.H.H.H.H.H.H.H pbc="F F F"
C        1.07345956      -0.01557000       0.09707997
C        2.56695907      -0.00847000       0.04808998
N        3.28179863      -1.09563960      -0.05145998
N        4.58984803      -0.70461971      -0.00411000
C        4.75644823       0.74650972      -0.14516994
C        3.36800861       1.23634948       0.08153997
C        2.92537896       2.47863909       0.29819988
H        0.69773970      -1.03499961      -0.02564999
H        0.67302972       0.60678974      -0.70695970
H        0.73514971       0.37215984       1.06209960
H        5.17402820      -1.23571953      -0.64977974
H        5.09031781       0.99364958      -1.15795949
H        5.46724772       1.12996952       0.59197979
H        3.61480851       3.31672859       0.31768988
H        1.87691925       2.69316885       0.46994981
