12
Properties=species:S:1:pos:R:3 atomization_energy=-1248.73 smiles=O.C.C.O.C.C.N.H.H.H.H.H pbc="F F F"
O        2.63074891       3.26977883      -0.27689990
C        2.46906892       2.33812918      -1.04972957
C        3.18755871       1.02601958      -0.86972964
O        2.74588892       0.00403000      -1.37443940
C        4.42481834       1.09345959      -0.06291998
C        5.48210801       0.02597999      -0.19608991
N        5.65708762       1.31988942      -0.84009964
H        1.78348931       2.36043905      -1.91070931
H        4.35536820       1.62569938       0.87939966
H        5.29295798      -0.81402966      -0.85494965
H        6.11449758      -0.18755992       0.65640974
H        6.30759761       1.90750924      -0.31349989
