13
Properties=species:S:1:pos:R:3 atomization_energy=-1407.22 smiles=C.C.C.C.N.N.C.H.H.H.H.H.H pbc="F F F"
C        2.68175894      -1.16398958       0.36088987
C        2.21328905       0.07544997       0.16703993
C        2.99788887       1.26006950       0.09771996
C        2.49737897       2.52527898      -0.10214996
N        3.57604867       3.36240862      -0.10184996
N        4.74630804       2.72954896       0.08460997
C        4.39200821       1.44617945       0.20630991
H        2.00017916      -2.00850924       0.39879984
H        3.73792850      -1.37667947       0.48595982
H        1.13635956       0.19063992       0.05179998
H        1.49520943       2.90296892      -0.24198990
H        3.58873866       4.36975815      -0.22231991
H        5.16555794       0.70726975       0.36828987
