15
Properties=species:S:1:pos:R:3 atomization_energy=-1531.87 smiles=C.C.N.C.C.C.N.H.H.H.H.H.H.H.H pbc="F F F"
C        0.98210959      -0.01933999       0.28319989
C        2.45612912      -0.04008998       0.03051999
N        3.12188874       1.06406956      -0.21594992
C        4.50113846       0.69402974      -0.47174981
C        5.33590779       0.01388000       0.57530978
C        4.52865820      -0.82505968      -0.36439987
N        3.16814863      -1.22866952       0.00443000
H        0.59736978      -1.03437957       0.41017985
H        0.47537982       0.45539982      -0.56141976
H        0.77984968       0.55809978       1.18936956
H        5.02990819       1.23818948      -1.24198946
H        6.41113770       0.02541999       0.44582981
H        5.01761814       0.09530996       1.60764937
H        5.00424812      -1.38747950      -1.15550948
H        2.70838897      -2.02596917      -0.41814983
