15
Properties=species:S:1:pos:R:3 atomization_energy=-1549.69 smiles=C.C.C.C.C.N.N.H.H.H.H.H.H.H.H pbc="F F F"
C        1.03168959       0.07520997       0.08300996
C        2.50952897      -0.01542000      -0.02862999
C        3.27899876      -1.11764957      -0.04300998
C        4.74669815      -0.76434967      -0.19571992
C        4.61912805       0.75476972      -0.28919988
N        5.60380788       1.56343942      -0.47684980
N        3.30690861       1.09067953      -0.15486994
H        0.56939980      -0.91720961       0.09243996
H        0.61676976       0.63087974      -0.76406971
H        0.74845968       0.59008977       1.00642959
H        2.91733893      -2.13229904       0.03438999
H        5.33229793      -1.04861957       0.68122973
H        5.17554774      -1.17226958      -1.11347955
H        6.47962747       1.03651959      -0.54965980
H        2.96137881       2.03384923      -0.23850991
