14
Properties=species:S:1:pos:R:3 atomization_energy=-1540.54 smiles=C.C.C.C.N.C.C.H.H.H.H.H.H.H pbc="F F F"
C        2.65259903      -1.17700949       0.35444987
C        2.21000925       0.07378997       0.16881994
C        3.01970871       1.24445953       0.09597997
C        2.51412897       2.51266898      -0.09635996
N        3.56568870       3.39291875      -0.11482995
C        4.73732808       2.70580888       0.06297997
C        4.42893841       1.36920946       0.19669993
H        1.95400922      -2.00620924       0.39568985
H        3.70556853      -1.40877941       0.46893982
H        1.13521953       0.21244992       0.06368998
H        1.50074936       2.86937883      -0.22190991
H        3.48764870       4.39387850      -0.24028990
H        5.68697777       3.22309880       0.07930997
H        5.14939815       0.57684976       0.35001985
