19
Properties=species:S:1:pos:R:3 atomization_energy=-1785.39 smiles=C.C.N.C.C.C.N.H.H.H.H.H.H.H.H.H.H.H.H pbc="F F F"
C        1.00295959      -0.10865996      -0.04675998
C        2.49215900      -0.11821995      -0.05316998
N        3.21903879      -0.59448979      -1.22520956
C        3.26000882       0.83967970      -0.93380966
C        4.54847832       1.44764940      -0.46368982
C        4.29784828       2.52456892       0.59492979
N        5.54216789       3.17407867       0.99504964
H        0.63735974       0.65885975       0.64265976
H        0.62028978      -1.07745951       0.28868989
H        0.58364977       0.09934996      -1.03693959
H        2.91045886      -0.39262983       0.90810966
H        2.58948897      -0.78918966      -2.00540922
H        2.71463896       1.48762939      -1.61024939
H        5.06090809       1.88702927      -1.32900942
H        5.21673779       0.67782976      -0.05662998
H        3.82495856       2.07787914       1.47702947
H        3.60752851       3.28157859       0.20686992
H        6.19541769       2.47462904       1.34733953
H        5.35837788       3.80874855       1.77090934
