14
Properties=species:S:1:pos:R:3 atomization_energy=-1285.61 smiles=C.C.N.C.S.O.O.H.H.H.H.H.H.H pbc="F F F"
C        0.96183963       0.07355997       0.01064000
C        2.47377893      -0.02758999       0.00406000
N        3.11953878       0.95510964       0.91602964
C        4.24447820       0.04061998       1.22877954
S        3.21134875      -1.36527952       0.91887966
O        2.43762895      -1.73700926       2.08981920
O        3.84775846      -2.33911908       0.05488998
H        0.52165980      -0.75362969      -0.55659979
H        0.63317974       1.00778959      -0.45770982
H        0.54744976       0.04089998       1.02439961
H        2.87138890       0.01367000      -1.01825957
H        2.55059891       1.15502955       1.74484932
H        5.08822800       0.11054996       0.53433976
H        4.61091820       0.10431995       2.25681922
