17
Properties=species:S:1:pos:R:3 atomization_energy=-1679.43 smiles=C.C.C.C.N.C.N.H.H.H.H.H.H.H.H.H.H pbc="F F F"
C        0.97643964       0.04976998      -0.03008999
C        2.50400897      -0.01579000       0.00764000
C        3.02528876       0.00726000       1.43886941
C        3.04648888      -1.22305957      -0.80285971
N        3.46650864      -0.68401976      -2.13477921
C        3.44931857       0.60077978      -1.96048921
N        3.06737888       1.08983952      -0.75199969
H        0.59891978       0.05150998      -1.05899959
H        0.60983973       0.96359964       0.45086981
H        0.53390979      -0.80710966       0.48888982
H        4.12094842       0.00300000       1.46600940
H        2.67028897      -0.86333966       2.00055917
H        2.69342900       0.90975965       1.96455919
H        2.28923899      -2.00210924      -0.94018961
H        3.92369856      -1.67748936      -0.32750988
H        3.69425854       1.34315953      -2.73600889
H        2.59526887       1.98575918      -0.72680972
