10
Properties=species:S:1:pos:R:3 atomization_energy=-1117.96 smiles=O.C.C.N.C.C.S.H.H.H pbc="F F F"
O        2.45950910      -1.16411953       0.07697997
C        2.07938922       0.00394000       0.00128000
C        2.90936880       1.18781949      -0.00212000
N        2.40579913       2.40360914      -0.08741997
C        3.43580875       3.32484861      -0.06688997
C        4.70528807       2.79790878       0.03351999
S        4.61578819       1.08571958       0.10545995
H        0.99932962       0.21801991      -0.07355997
H        3.20391885       4.38165809      -0.12861995
H        5.65219795       3.31751864       0.06717997
