20
Properties=species:S:1:pos:R:3 atomization_energy=-1909.79 smiles=C.C.C.C.C.N.C.H.H.H.H.H.H.H.H.H.H.H.H.H pbc="F F F"
C        1.88790928      -0.60576976      -1.34145945
C        2.37793898      -0.07687997      -0.00180000
C        3.18768866       1.21842955      -0.14534995
C        4.50317830       1.02496957      -0.90592965
C        2.37504903       2.47314911      -0.56181977
N        3.03748873       3.23820865       0.51432980
C        3.37130860       1.97230916       1.19979955
H        1.25495954      -1.48587935      -1.18913956
H        2.72114886      -0.90456964      -1.98426916
H        1.30047947       0.14663994      -1.87659929
H        2.98428872      -0.84514967       0.49292980
H        1.50395939       0.09198996       0.63964977
H        5.11283787       1.93531930      -0.90540965
H        4.32120810       0.76166972      -1.95242925
H        5.10134822       0.22811991      -0.45144983
H        1.29051945       2.39253912      -0.42011984
H        2.55943908       2.85392884      -1.57131935
H        3.86129855       3.74724861       0.19300993
H        4.37341846       1.94327921       1.63965936
H        2.65063892       1.71328936       1.98497922
