18
Properties=species:S:1:pos:R:3 atomization_energy=-1793.18 smiles=C.C.C.C.C.N.C.H.H.H.H.H.H.H.H.H.H.H pbc="F F F"
C        1.01766962       0.04685998       0.08222997
C        2.35872900       0.00306000       0.02309999
C        3.12461871      -1.29213954      -0.00435000
C        4.10989834      -1.29052954      -1.17081955
C        4.95819817      -0.01862999      -1.17548958
N        4.11732848       1.17839959      -1.20631954
C        3.21985862       1.23580949      -0.05220998
H        0.48119981       0.99047960       0.08127997
H        0.42225983      -0.86023965       0.11943995
H        2.45707914      -2.15758920      -0.08945996
H        3.67204860      -1.40106943       0.94036964
H        4.76094831      -2.17002913      -1.10604953
H        3.55992848      -1.36956941      -2.11821921
H        5.61780772       0.00321000      -0.29953988
H        5.60172766      -0.02159999      -2.06158914
H        4.70868798       2.00712924      -1.20508955
H        3.79955839       1.33658946       0.87394969
H        2.60216886       2.13685918      -0.13852994
