12
Properties=species:S:1:pos:R:3 atomization_energy=-1330.96 smiles=O.C.C.C.C.N.C.H.H.H.H.H pbc="F F F"
O        0.89732963      -0.14690994       0.00613000
C        2.26309899      -0.03419998      -0.00072000
C        2.89400889       1.13603960      -0.00133000
C        2.38785913       2.47289905       0.00435000
C        3.47260875       3.26245870       0.00045000
N        4.68606799       2.59060907      -0.00742000
C        4.35633816       1.32964946      -0.00871000
H        0.66432972      -1.09257958       0.00484000
H        2.77417879      -0.98866963      -0.00557000
H        1.35341945       2.76875897       0.01044000
H        3.45704874       4.34538850       0.00298000
H        5.04699808       0.47580982      -0.01408999
