14
Properties=species:S:1:pos:R:3 atomization_energy=-1420.82 smiles=C.C.C.C.O.C.H.H.H.H.H.H.H.H pbc="F F F"
C        1.04003961       0.00510000       0.06838997
C        2.37717896       0.02240999       0.03959998
C        3.23533864       1.23933948       0.06092997
C        4.38766812       0.76357968      -0.79780968
O        4.56817833      -0.62358977      -0.47755980
C        3.27264859      -1.15989954      -0.15257993
H        0.48601981      -0.92629965      -0.00240000
H        0.46532981       0.92153962       0.16357994
H        3.57436865       1.42772949       1.08559959
H        2.76091904       2.13902923      -0.33859988
H        4.15932826       0.84548968      -1.86738933
H        5.31373796       1.30923953      -0.59594978
H        2.94272875      -1.80073930      -0.97554961
H        3.37195860      -1.74842927       0.76374969
