20
Properties=species:S:1:pos:R:3 atomization_energy=-1916.19 smiles=C.C.C.N.C.C.C.H.H.H.H.H.H.H.H.H.H.H.H.H pbc="F F F"
C        0.88927963      -0.10891995       0.16052994
C        2.40369898      -0.01579000      -0.02908999
C        2.82350880      -0.04769998      -1.50918946
N        2.36113902       1.13580960      -2.23012913
C        3.08847882       1.08096957       0.84536964
C        4.17712847       0.05189998       1.20378954
C        3.17677886      -1.05978964       0.83817965
H        0.62027975      -0.16908994       1.22098957
H        0.48737981      -1.00027958      -0.33331988
H        0.38103985       0.76871967      -0.25107990
H        2.42728917      -0.94676965      -1.99558925
H        3.91453843      -0.09339996      -1.60006934
H        1.34400951       1.12590951      -2.28967906
H        2.69543882       1.09279961      -3.19215870
H        2.49953893       1.40200949       1.71305937
H        3.44663856       1.97289924       0.32454988
H        5.05578779       0.09137997       0.54964977
H        4.51336845       0.06249998       2.24427911
H        3.60245866      -1.91505924       0.30579987
H        2.62136900      -1.43633941       1.70509932
