13
Properties=species:S:1:pos:R:3 atomization_energy=-1424.93 smiles=C.C.C.N.C.C.N.H.H.H.H.H.H pbc="F F F"
C        1.03248961      -0.01266999       0.06084997
C        2.52507889       0.02071999      -0.00967000
C        3.22128883       1.22518950      -0.05567998
N        4.57192797       1.29252952      -0.13428995
C        5.20572807       0.10030996      -0.17063993
C        4.52311802      -1.10305953      -0.13107995
N        3.17401887      -1.16947955      -0.05114998
H        0.61181978       0.98390959       0.23092991
H        0.71100974      -0.65937974       0.88410968
H        0.62450977      -0.40395985      -0.87678967
H        2.71062891       2.18122910      -0.02977999
H        6.28687768       0.13664994      -0.23404991
H        5.04475789      -2.05213921      -0.16355994
