12
Properties=species:S:1:pos:R:3 atomization_energy=-1249.79 smiles=C.C.C.N.S.C.O.H.H.H.H.H pbc="F F F"
C        0.95986961       0.04038998       0.01553000
C        2.43710915       0.01148000      -0.04945998
C        3.30869865       1.02737958      -0.10570996
N        4.65585839       0.76652969      -0.18020992
S        4.91578785      -0.88039965      -0.00020000
C        3.18965886      -1.25933950      -0.00741000
O        2.70793906      -2.37710906       0.04550998
H        0.58060974       1.06733964       0.02748999
H        0.60360974      -0.45962981       0.92165966
H        0.52816979      -0.46754982      -0.85256966
H        3.02534882       2.07485924      -0.10108996
H        5.26146804       1.43324949       0.29612988
