15
Properties=species:S:1:pos:R:3 atomization_energy=-1552.82 smiles=C.C.C.N.C.C.N.H.H.H.H.H.H.H.H pbc="F F F"
C        0.93165961       0.04673998      -0.00644000
C        2.41583914       0.00485000      -0.00005000
C        3.27109877       1.09317963       0.00109000
N        4.56183825       0.63009973       0.00887000
C        4.55493800      -0.73998973       0.01224000
C        3.24624868      -1.14280952       0.00742999
N        2.84798896      -2.41844900       0.01016000
H        0.56253979       1.07708960       0.00172000
H        0.53077981      -0.46357983       0.87428964
H        0.53990978      -0.44611983      -0.90200962
H        3.06903872       2.15538912      -0.00231000
H        5.39060765       1.20960956       0.01213000
H        5.48010803      -1.29693951       0.01891999
H        1.87161928      -2.68654894      -0.03028999
H        3.50243859      -3.19212868      -0.02057999
