13
Properties=species:S:1:pos:R:3 atomization_energy=-1302.07 smiles=C.C.C.C.S.N.N.H.H.H.H.H.H pbc="F F F"
C        0.94130964      -0.17745994      -0.01027000
C        2.44969896       0.01377000       0.02566999
C        2.83589877       1.45326945       0.01057999
C        3.09746888       2.25601908       1.10759960
S        3.48931863       3.81853850       0.51711979
N        3.30023874       3.36312878      -1.08009953
N        2.95548889       2.09417924      -1.21725948
H        0.69293973      -1.24339949      -0.00267000
H        0.50801981       0.26732989      -0.91225963
H        0.46281981       0.29007989       0.85726965
H        2.89997879      -0.49209979      -0.83653969
H        2.85583899      -0.47016981       0.92223964
H        3.07742873       2.01779919       2.15974915
