17
Properties=species:S:1:pos:R:3 atomization_energy=-1604.17 smiles=O.C.C.C.N.C.N.H.H.H.H.H.H.H.H.H.H pbc="F F F"
O        2.63387908      -0.68859970       0.86118967
C        2.25618915       0.16672993      -0.20754992
C        2.86210892       1.54727937      -0.00112000
C        4.38827825       1.49938942       0.01093000
N        4.93658802       2.83142897       0.18041992
C        5.05043786       3.73790857      -0.81807970
N        5.40852771       4.96068818      -0.66906977
H        2.16702916      -1.53323941       0.73206969
H        1.16395955       0.23553991      -0.22745991
H        2.59739905      -0.27583989      -1.14885954
H        2.51172905       1.96268929       0.95202962
H        2.51065891       2.21648912      -0.79526971
H        4.76695833       1.05464959      -0.91677964
H        4.74465830       0.87262968       0.83575966
H        5.03996814       3.14909888       1.13621952
H        4.80670807       3.34768862      -1.82105929
H        5.60681769       5.14005785       0.31698988
