13
Properties=species:S:1:pos:R:3 atomization_energy=-1302.5 smiles=O.N.C.N.C.C.C.H.H.H.H.H.H pbc="F F F"
O        1.14641950       0.00154000      -0.08326997
N        2.51948899       0.01042999      -0.27878989
C        3.19448873      -1.05358961       0.24863990
N        4.41335846      -0.85661964       0.67193972
C        4.60295815       0.62235978       0.45581982
C        3.27520874       1.13686952      -0.07611997
C        2.95870889       2.42573910      -0.24363991
H        0.82802969       0.57337976      -0.80322969
H        2.66229890      -2.01662926       0.28015989
H        4.85723791       1.09037963       1.41281949
H        5.41002807       0.77702969      -0.26788991
H        3.67265848       3.20853879      -0.01676999
H        1.98383919       2.72783891      -0.61070977
