15
Properties=species:S:1:pos:R:3 atomization_energy=-1530.23 smiles=C.C.C.C.C.N.N.H.H.H.H.H.H.H.H pbc="F F F"
C        0.95977960      -0.00457000       0.04931998
C        2.44345906       0.04559999       0.02924999
C        3.28906879       1.13802961      -0.06347998
C        4.61940813       0.65740973      -0.01995999
C        4.55094814      -0.71387970       0.09620997
N        3.23469872      -1.06959952       0.11557996
N        2.77754893      -2.39746917       0.19810992
H        0.53483982       1.00481959       0.05209998
H        0.59800975      -0.52167979       0.94410963
H        0.57903980      -0.52574981      -0.83522965
H        2.97763878       2.17179923      -0.14394995
H        5.52690791       1.24607950      -0.06037997
H        5.33465773      -1.45412939       0.17179993
H        1.96458922      -2.54157908      -0.39561983
H        3.47733870      -3.05009873      -0.14514994
