13
Properties=species:S:1:pos:R:3 atomization_energy=-1369.73 smiles=O.C.C.C.S.C.C.H.H.H.H.H.H pbc="F F F"
O        2.29502899      -0.59183974      -1.32100952
C        2.33418903      -0.07553997       0.00207000
C        2.82817894       1.33327950       0.00917000
C        2.01894920       2.45489900       0.01626000
S        2.90642888       3.91674835       0.03335998
C        4.39296808       3.07505883       0.01372999
C        4.21239832       1.71015932      -0.00036000
H        1.95804917      -1.50012938      -1.25631948
H        2.99309886      -0.71170971       0.60298976
H        1.32609942      -0.13404995       0.42691982
H        0.93773966       2.48810908       0.00935000
H        5.32701815       3.62006861       0.00833000
H        5.03595809       1.00593963      -0.02363999
