13
Properties=species:S:1:pos:R:3 atomization_energy=-1305.22 smiles=C.C.C.C.N.N.S.H.H.H.H.H.H pbc="F F F"
C        1.06992957       0.17165993       0.00626000
C        2.55104907       0.13431995       0.00015000
C        3.48550868       1.16011957      -0.00053000
C        3.22987869       2.62063901       0.00505000
N        4.80943830       0.73519973      -0.00673000
N        4.90847831      -0.58196975      -0.01089000
S        3.42191868      -1.34422942      -0.00728000
H        0.62681973      -0.82965968      -0.00189000
H        0.69997971       0.70786973      -0.87405964
H        0.70703975       0.69068976       0.89970962
H        2.15972922       2.84762888      -0.00232000
H        3.68153852       3.08668878      -0.87663967
H        3.66766863       3.07723872       0.89856965
