13
Properties=species:S:1:pos:R:3 atomization_energy=-1320.32 smiles=C.N.C.N.C.C.S.H.H.H.H.H.H pbc="F F F"
C        2.99949874      -1.28524951       0.52437980
N        2.55921905      -0.09185996      -0.16076994
C        3.26204866       1.06354963      -0.08349997
N        2.66009907       2.22737923      -0.18181992
C        3.57593865       3.25578882      -0.09269997
C        4.88576800       2.86967885       0.07529997
S        4.97518814       1.16179959       0.12010995
H        2.26326906      -2.08132914       0.37396984
H        3.09046870      -1.11330960       1.60206932
H        3.95462857      -1.64840932       0.13161995
H        1.55592941       0.06304997      -0.12643995
H        3.22949868       4.27940842      -0.15859994
H        5.76548762       3.48905872       0.16723993
