13
Properties=species:S:1:pos:R:3 atomization_energy=-1406.19 smiles=C.C.C.C.C.N.N.H.H.H.H.H.H pbc="F F F"
C        1.00889960      -0.02608999      -0.07207997
C        2.49804891       0.01957999       0.05431998
C        3.17565876       1.23027952       0.07972997
C        4.55901820       1.21580946       0.19457992
C        5.19075776      -0.00817000       0.27662991
N        4.51660838      -1.17360958       0.24911990
N        3.15638873      -1.15829951       0.13629995
H        0.64524976      -1.05841961      -0.03967998
H        0.69647975       0.41585983      -1.02314963
H        0.54106981       0.52435981       0.75029967
H        2.63861887       2.17035918       0.01176000
H        5.12933781       2.13695910       0.21909991
H        6.26738761      -0.09434996       0.36771985
