20
Properties=species:S:1:pos:R:3 atomization_energy=-1916.74 smiles=C.C.C.C.C.C.N.H.H.H.H.H.H.H.H.H.H.H.H.H pbc="F F F"
C        2.16534914      -0.92613961      -0.45976982
C        1.90130921       0.50122980      -0.00804000
C        3.16443886       1.30799944       0.04766998
C        3.49383864       2.30314901      -1.03659958
C        3.07438890       2.78996892       0.32957989
C        4.05670842       3.42499863       1.25883951
N        3.98885831       4.86464787       1.06888959
H        1.22938955      -1.49022942      -0.50771979
H        2.83606883      -1.43837938       0.23905991
H        2.63286900      -0.94566961      -1.44865948
H        1.44657939       0.48197979       0.98859961
H        1.17274951       0.96457963      -0.68496973
H        3.98124851       0.76412970       0.51044980
H        2.79407890       2.43936902      -1.85348928
H        4.53309823       2.40704917      -1.32960947
H        2.08118922       3.21451879       0.43912981
H        5.07747819       3.07263872       1.07179960
H        3.79845848       3.17808871       2.29209917
H        4.25599813       5.08684775       0.11070995
H        4.67748823       5.31267766       1.66915940
