16
Properties=species:S:1:pos:R:3 atomization_energy=-1556.03 smiles=O.C.C.N.C.C.C.H.H.H.H.H.H.H.H.H pbc="F F F"
O        2.51767902      -1.19240952      -0.68646971
C        1.70734936      -0.34567985       0.12864995
C        2.23095905       1.09304955       0.05825997
N        3.57465857       1.16749951       0.64394974
C        4.17383832       2.47836909       0.42581985
C        5.51885804       2.50864909       1.01412960
C        6.61972733       2.53343913       1.49468937
H        2.21842904      -2.10353921      -0.52444979
H        1.72487932      -0.72185973       1.15717954
H        0.68012976      -0.39129986      -0.24641991
H        1.54921942       1.75564935       0.60217978
H        2.26451911       1.40415948      -0.99296961
H        4.15141844       0.45652982       0.18693992
H        3.55839860       3.25662883       0.89330968
H        4.24068819       2.70064896      -0.64517974
H        7.59316682       2.54961911       1.92677927
