11
Properties=species:S:1:pos:R:3 atomization_energy=-1148.41 smiles=C.C.C.N.S.N.C.H.H.H.H pbc="F F F"
C        1.98552918       0.32599987      -0.67842974
C        2.67166896      -0.00425000       0.67555973
C        3.36925866       1.29390952       0.53937976
N        3.83145862       2.28985922       1.27114949
S        3.61383855       3.60849847       0.18537992
N        2.67329903       2.84720875      -1.03971959
C        2.76432879       1.58471940      -0.66685972
H        0.90166966       0.47286982      -0.71052975
H        2.24526901      -0.33788988      -1.51089939
H        3.35075874      -0.86443964       0.65846977
H        2.06309922      -0.09289996       1.58049941
