20
Properties=species:S:1:pos:R:3 atomization_energy=-1915.83 smiles=C.C.C.C.C.N.C.H.H.H.H.H.H.H.H.H.H.H.H.H pbc="F F F"
C        2.26627912      -0.47753981      -1.45735949
C        2.43918911       0.03809999      -0.03782999
C        3.28214861       1.30610948      -0.02724999
C        2.62287895       2.60644890      -0.56450975
C        3.21889875       3.37061873       0.63333972
N        4.52672838       3.91306835       0.25958989
C        3.40886861       2.01755923       1.34736943
H        1.67765931      -1.39988940      -1.45815938
H        3.23631869      -0.68965974      -1.91852930
H        1.75067931       0.25682990      -2.08430917
H        2.92846876      -0.73395971       0.56696979
H        1.45383946       0.22103991       0.40618983
H        4.26882817       1.12444952      -0.47762983
H        1.52552943       2.58492909      -0.54717976
H        2.93769878       2.91795890      -1.56553932
H        2.55653905       4.08805831       1.12325953
H        5.14464776       3.26349881      -0.22479991
H        5.05974788       4.26993843       1.05070956
H        4.35320825       1.85811931       1.87716931
H        2.59012887       1.78884933       2.04138914
