13
Properties=species:S:1:pos:R:3 atomization_energy=-1314.63 smiles=N.C.C.N.S.C.C.H.H.H.H.H.H pbc="F F F"
N        2.81947881      -0.69952974      -1.33479942
C        2.38293918      -0.04065999      -0.10048996
C        2.88704883       1.37312942      -0.04831998
N        2.00457918       2.36274914       0.11893995
S        2.80635885       3.81171849       0.14980993
C        4.37284820       3.15167872      -0.02370999
C        4.26267835       1.78163934      -0.11635996
H        2.41835917      -1.63457930      -1.36390949
H        3.82889846      -0.81844968      -1.31694951
H        2.75659887      -0.59698976       0.76610968
H        1.28768955      -0.06002998      -0.05879998
H        5.25640779       3.77303863      -0.05003998
H        5.10385790       1.11350957      -0.23453990
