11
Properties=species:S:1:pos:R:3 atomization_energy=-1272.7 smiles=C.C.C.C.S.C.C.H.H.H.H pbc="F F F"
C        0.91071965       0.02556999      -0.00487000
C        2.11140917       0.03199999      -0.00180000
C        3.54048863       0.03786999       0.00183000
C        4.28592815       1.19570951       0.00290000
S        5.96905788       0.87681964       0.00744000
C        5.70292763      -0.81437970       0.00801999
C        4.36045823      -1.12687960       0.00479000
H       -0.15374994       0.01971999      -0.00755000
H        3.93043833       2.21710909       0.00114000
H        6.54218745      -1.49611946       0.01070000
H        3.98792847      -2.14379904       0.00455000
