13
Properties=species:S:1:pos:R:3 atomization_energy=-1354.29 smiles=C.C.C.C.N.N.C.H.H.H.H.H.H pbc="F F F"
C        0.99999962       0.00000000       0.00000000
C        2.19015911       0.00000000       0.00000000
C        3.63415853       0.00000000       0.00000000
C        4.25055838      -1.24240947       0.63721976
N        4.60619809      -0.76620973       1.97384927
N        4.76086806       0.57801975       2.01037927
C        4.18620835       1.02708959       0.94065964
H       -0.06604997      -0.00105000       0.00969000
H        4.03690849       0.17739993      -1.00182959
H        5.16340808      -1.52686943       0.10040997
H        3.58182856      -2.10813921       0.67677975
H        5.38339804      -1.27256949       2.39922918
H        4.11024832       2.09974919       0.70566972
