17
Properties=species:S:1:pos:R:3 atomization_energy=-1785.27 smiles=C.C.C.C.C.C.C.H.H.H.H.H.H.H.H.H.H pbc="F F F"
C       -1.45577939       0.66228975       0.24128991
C       -1.42231938      -0.78659967      -0.23032991
C       -0.27784990      -1.57308933       0.32748985
C        0.99389964      -1.17436948       0.45862982
C        1.59103941       0.05307998      -0.00067000
C        1.00444961       1.19334958      -0.39087985
C       -0.44587984       1.56327944      -0.46105983
H       -2.45797896       1.06615961       0.04808998
H       -1.31015953       0.71260971       1.32810948
H       -1.42584949      -0.85388966      -1.32470945
H       -2.34715911      -1.26814952       0.11152996
H       -0.53041979      -2.57059894       0.68419974
H        1.69867938      -1.87458922       0.90655965
H        2.68033907       0.01952999      -0.03586998
H        1.67116935       1.98918924      -0.72458970
H       -0.54982981       2.56946900      -0.03381999
H       -0.71971972       1.65351941      -1.51989941
