13
Properties=species:S:1:pos:R:3 atomization_energy=-1319.57 smiles=C.C.C.S.C.N.N.H.H.H.H.H.H pbc="F F F"
C        0.97920961      -0.01287000      -0.00879000
C        2.46416915       0.10321996      -0.00090000
C        3.16539872       1.25105951       0.00374000
S        4.89432808       0.94972962       0.01312999
C        4.61075822      -0.80084970       0.01104000
N        5.58019775      -1.63688939       0.01678999
N        3.26449880      -1.02534957       0.00299000
H        0.49720981       0.97060959      -0.00626000
H        0.63410977      -0.55916979       0.87487966
H        0.64295972      -0.55046979      -0.90123963
H        2.75607882       2.25175922       0.00204000
H        5.20763771      -2.58652887       0.01444000
H        2.85818895      -1.94665919       0.00111000
