20
Properties=species:S:1:pos:R:3 atomization_energy=-1916.3 smiles=C.C.C.N.C.C.C.H.H.H.H.H.H.H.H.H.H.H.H.H pbc="F F F"
C        2.88249880      -1.01750958      -0.36640987
C        2.34591915       0.27657988       0.22720991
C        3.40368875       1.33672950       0.27536989
N        3.57043859       2.26197914      -0.84135965
C        3.08798879       2.81993881       0.42966982
C        1.66238936       3.29980877       0.49905981
C        4.06285849       3.65607855       1.21760947
H        2.09994917      -1.78252932      -0.38405984
H        3.72273841      -1.40171943       0.22173991
H        3.23436868      -0.86221969      -1.39183940
H        1.99349919       0.08411997       1.24663955
H        1.47711942       0.59393977      -0.35918985
H        4.31951849       0.97647963       0.73423973
H        2.81148899       2.17078915      -1.51810937
H        1.00804962       2.80077880      -0.22297991
H        1.61094936       4.37437833       0.29193988
H        1.25594956       3.12668884       1.50111940
H        5.09132815       3.28925880       1.12695959
H        3.79616858       3.64652857       2.27978919
H        4.04683848       4.69423797       0.86870965
