15
Properties=species:S:1:pos:R:3 atomization_energy=-1415.52 smiles=C.S.O.O.C.C.C.H.H.H.H.H.H.H.H pbc="F F F"
C        3.94972855      -1.21012948      -0.41913985
S        2.77396885       0.00653000       0.10786996
O        1.80260933       0.18522993      -0.95304961
O        2.36782908      -0.31498987       1.46072937
C        3.77097860       1.52174938       0.23944990
C        3.84557857       2.35450902      -1.01091957
C        2.96613878       2.78913901       0.13188994
H        4.74587807      -1.27650951       0.32454988
H        4.35069805      -0.91535964      -1.39040945
H        3.43438863      -2.16903923      -0.50234981
H        4.60954804       1.50118943       0.91915963
H        3.35635873       2.01471924      -1.91737930
H        4.75216819       2.92091875      -1.19156951
H        3.28151879       3.63983851       0.72459974
H        1.89019932       2.72351900       0.00015000
