16
Properties=species:S:1:pos:R:3 atomization_energy=-1552.94 smiles=C.C.C.C.C.O.H.H.H.H.H.H.H.H.H.H pbc="F F F"
C        0.99375960      -0.07658997       0.20122992
C        2.48288910       0.06401998      -0.07370997
C        2.81264896       0.08340996      -1.56063943
C        3.20286865       1.13433952       0.76953968
C        4.07225834      -0.02259999       1.25096955
O        3.22396885      -0.99439963       0.59257977
H        0.79004967      -0.15463993       1.27478949
H        0.58804979      -0.97306963      -0.27892991
H        0.44358983       0.79061969      -0.18126994
H        3.89416848       0.12529995      -1.73126935
H        2.36384905       0.95513960      -2.04710923
H        2.43385912      -0.81553967      -2.05755916
H        2.60060895       1.59817938       1.55669940
H        3.73332851       1.91053923       0.21219991
H        5.08890778      -0.04671998       0.84463965
H        4.09852829      -0.17201993       2.33259909
