11
Properties=species:S:1:pos:R:3 atomization_energy=-1179.55 smiles=O.C.C.N.N.C.C.H.H.H.H pbc="F F F"
O        0.96034961       0.03981999       0.42311984
C        2.12307911       0.08400997       0.08715996
C        3.03339869       1.25109950       0.12846995
N        4.21014828       0.96427961      -0.31601988
N        4.25247811      -0.32248988      -0.81263969
C        4.29868854      -1.28221951       0.28304988
C        2.98585873      -0.97837963      -0.39716984
H        2.67737897       2.19909920       0.55078980
H        4.78048833      -2.22515922       0.05447998
H        4.49148830      -0.91374964       1.28359951
H        2.58183904      -1.68466932      -1.10862961
