14
Properties=species:S:1:pos:R:3 atomization_energy=-1427.91 smiles=C.C.C.C.C.O.H.H.H.H.H.H.H.H pbc="F F F"
C        0.99360959       0.00124000       0.03274999
C        2.51106895      -0.00145000      -0.11978995
C        3.03196873      -1.25144949      -0.84082969
C        3.41845871      -0.69392976      -2.15697906
C        3.32434874       0.62803976      -2.09787917
O        2.89062891       1.15685958      -0.90178964
H        0.66360975       0.92136961       0.52801978
H        0.65236972      -0.85528967       0.62265974
H        0.49629982      -0.02399999      -0.94383964
H        2.97154877       0.08931997       0.87054965
H        2.28010914      -2.04168916      -0.92131964
H        3.91244837      -1.66014929      -0.33354987
H        3.75762851      -1.26538953      -3.00667883
H        3.56263852       1.35544945      -2.85631892
