17
Properties=species:S:1:pos:R:3 atomization_energy=-1778.88 smiles=C.C.C.C.C.C.C.H.H.H.H.H.H.H.H.H.H pbc="F F F"
C        1.42539946       0.28496990       0.65038974
C        2.66958900      -0.10296996      -0.08374997
C        3.40256865       0.94481963      -0.89688962
C        4.02732848       0.42070982       0.36622987
C        4.91555823      -0.74884972       0.31149988
C        4.30599808      -1.87186922      -0.10439996
C        2.85402877      -1.58563940      -0.40207983
H        1.41336945       1.35168946       0.89710966
H        1.33906950      -0.27603989       1.58596932
H        0.54489976       0.07034997       0.03752998
H        3.03267879       1.96440918      -0.88714964
H        3.83042860       0.65596974      -1.85160929
H        4.08203844       1.05250957       1.24314955
H        5.96181748      -0.69064970       0.58209976
H        4.77322826      -2.83767896      -0.21876991
H        2.62304902      -1.78731932      -1.45283948
H        2.21647902      -2.21166908       0.23088991
