11
Properties=species:S:1:pos:R:3 atomization_energy=-1222.38 smiles=O.C.N.C.C.C.N.H.H.H.H pbc="F F F"
O        0.89739965       0.42417982       1.12444952
C        2.12021919       0.39157985       1.14945959
N        2.90159876       1.36072948       0.57877977
C        4.27182839       1.36881948       0.57814976
C        4.97935817       2.34739908       0.00000000
C        6.38535752       2.34739908       0.00000000
N        7.53636705       2.34739908       0.00000000
H        2.68752899      -0.42054985       1.63312940
H        2.37781912       2.10762912       0.13367994
H        4.76442795       0.53291977       1.07421958
H        4.48985824       3.17880886      -0.49378981
