10
Properties=species:S:1:pos:R:3 atomization_energy=-1162.78 smiles=O.C.C.C.C.C.N.H.H.H pbc="F F F"
O        0.97569962      -0.03064999       0.00000000
C        2.19749917      -0.02526999      -0.00000000
C        2.93058884       1.21762952       0.00000000
C        3.52566871       2.24833912       0.00000000
C        4.24766818       3.49887870       0.00000000
C        3.64443851       4.81084832       0.00000000
N        3.16360868       5.85660746       0.00000000
H        2.80802878      -0.94227960      -0.00000000
H        4.92592803       3.46821869      -0.86495963
H        4.92592803       3.46821869       0.86495963
