16
Properties=species:S:1:pos:R:3 atomization_energy=-1684.48 smiles=C.C.C.C.C.C.N.H.H.H.H.H.H.H.H.H pbc="F F F"
C        0.95218960      -0.02823999      -0.00995999
C        2.43315915       0.04986998      -0.00015000
C        3.28048877       1.13877954       0.00773000
C        4.61789818       0.65677972       0.01533999
C        5.85942752       1.47149938       0.02569999
C        4.53729803      -0.72111971       0.01210999
N        3.21518872      -1.07851956       0.00238000
H        0.50649980       0.97117961      -0.00162000
H        0.58931978      -0.56876979       0.87035964
H        0.60041977      -0.54919980      -0.90641967
H        2.96982888       2.17531925       0.00795000
H        5.63117775       2.54189904       0.01145999
H        6.47396767       1.24369951      -0.85121969
H        6.44711761       1.26129949       0.92512966
H        5.31048793      -1.47877938       0.01551999
H        2.86966876      -2.02941917      -0.00194000
