18
Properties=species:S:1:pos:R:3 atomization_energy=-1707.17 smiles=O.C.C.C.C.N.C.H.H.H.H.H.H.H.H.H.H.H pbc="F F F"
O        2.65398887       3.52957859      -0.40296983
C        2.31746905       2.16629917      -0.61535973
C        3.04401881       1.29364949       0.39934986
C        4.54015845       1.26816946       0.11520996
C        5.38317801       2.48552899       0.56044980
N        6.45083748       1.53945937       0.97275964
C        5.41157789       0.49352982       1.12691960
H        2.14822922       4.05298830      -1.04833961
H        2.58318901       1.89331926      -1.64147930
H        1.23527947       2.06071923      -0.48965981
H        2.64901896       0.27318991       0.33625988
H        2.85521876       1.66231934       1.41467942
H        4.75391835       0.96171964      -0.91968965
H        4.97100802       3.05990886       1.39867948
H        5.67024771       3.17994865      -0.23429990
H        7.11068725       1.33928953       0.22074992
H        5.72069781      -0.50825981       0.81459967
H        5.00685824       0.43395983       2.14427923
