16
Properties=species:S:1:pos:R:3 atomization_energy=-1565.1 smiles=C.C.C.C.O.C.H.H.H.H.H.H.H.H.H.H pbc="F F F"
C        0.98904958      -0.00134000      -0.03582999
C        2.50400897       0.02040999       0.02987999
C        3.07103869       1.12728951       0.89161962
C        4.47042822       0.61695976       1.16384954
O        4.39131834      -0.81586966       1.19042948
C        3.10590885      -1.21009958       0.68598971
H        0.64077977      -0.84344965      -0.64293973
H        0.60901978       0.92210963      -0.48513980
H        0.54453981      -0.09804996       0.96070962
H        2.90944878       0.11978995      -0.98558961
H        2.51485897       1.20821946       1.83348925
H        3.06620882       2.10758913       0.40720985
H        5.15888782       0.89805962       0.35955986
H        4.87417792       0.98197964       2.11242922
H        3.23070861      -2.03917922      -0.01663999
H        2.50925898      -1.56119935       1.53518942
