15
Properties=species:S:1:pos:R:3 atomization_energy=-1432.64 smiles=O.N.C.N.C.C.C.H.H.H.H.H.H.H.H pbc="F F F"
O        1.31901950       1.09707953      -1.87547932
N        2.42480900       1.59159934      -1.18036954
C        3.14663865       0.62331977      -0.53316976
N        2.74973899      -0.56116977      -0.22498992
C        4.51416833       1.01952962      -0.12886995
C        5.68740775       0.11452996      -0.42641983
C        5.54039805       1.40750943      -1.16988959
H        0.58247977       1.25428947      -1.25326955
H        2.97359871       2.27340899      -1.70128938
H        1.80454926      -0.66218976      -0.60760976
H        4.55047830       1.54301939       0.82195967
H        5.49205793      -0.81119970      -0.95736964
H        6.46363723       0.03535999       0.32529987
H        6.22887731       2.20918917      -0.92930965
H        5.27864777       1.34362950      -2.21998920
