18
Properties=species:S:1:pos:R:3 atomization_energy=-1706.25 smiles=O.C.C.C.N.C.C.H.H.H.H.H.H.H.H.H.H.H pbc="F F F"
O        2.23421917       1.74378927       3.09490872
C        2.67225892       2.54512888       2.00155915
C        3.14795885       1.63125938       0.88044968
C        3.51722874       2.39421914      -0.39135985
N        4.61900793       3.33082861      -0.13687994
C        5.89987773       2.90078877      -0.68981972
C        5.09756779       3.99141846      -1.34657950
H        2.00448922       2.35623900       3.81455848
H        3.47711867       3.19696864       2.35589910
H        1.83084924       3.16333869       1.67282931
H        2.35588901       0.90885965       0.64740977
H        3.99781834       1.03204960       1.23111953
H        2.64119896       2.95976894      -0.73347971
H        3.74794858       1.66716939      -1.18233949
H        5.96756761       1.93784930      -1.18464958
H        6.77702710       3.18418882      -0.12147996
H        5.43152770       5.01507818      -1.21936947
H        4.59961830       3.78134840      -2.28432913
