14
Properties=species:S:1:pos:R:3 atomization_energy=-1431.09 smiles=C.C.C.C.C.O.H.H.H.H.H.H.H.H pbc="F F F"
C        0.93345962      -0.15744994      -0.06326998
C        2.41524893       0.04459998      -0.11448995
C        3.08062879       1.20867946       0.00303000
C        2.50169914       2.57730894       0.18531993
C        4.56965800       1.14603949      -0.06485998
O        5.27878806       2.14032923       0.03317999
H        0.69612970      -0.92855966       0.67670972
H        0.57274975      -0.49936980      -1.03811962
H        0.37829985       0.74120969       0.21192992
H        2.97329894      -0.88059963      -0.25681990
H        1.41106944       2.59314903       0.12835995
H        2.87000890       3.25432884      -0.59308980
H        2.78913901       2.98382872       1.16072958
H        5.00627788       0.14338995      -0.20769991
