15
Properties=species:S:1:pos:R:3 atomization_energy=-1439.22 smiles=N.C.S.N.C.C.C.H.H.H.H.H.H.H.H pbc="F F F"
N        1.17116954       0.11125996       0.15518993
C        2.47834891       0.05189998      -0.20601993
S        3.18375885      -1.43423938      -0.45980981
N        3.11053888       1.24847954      -0.31518988
C        2.73649892       2.58909886       0.10198996
C        4.07394845       3.04512882      -0.49279979
C        4.51923818       1.58015940      -0.47993982
H        0.65129971       0.97126963       0.06683997
H        0.64602978      -0.75406969       0.16563994
H        2.64779893       2.68611897       1.18753953
H        1.85008924       2.98706891      -0.39667984
H        3.98828855       3.47486863      -1.49790937
H        4.66107812       3.72157845       0.13448994
H        4.96214817       1.22487951      -1.41370946
H        5.13015788       1.28496955       0.37806985
