12
Properties=species:S:1:pos:R:3 atomization_energy=-1246.17 smiles=C.N.S.C.C.C.O.H.H.H.H.H pbc="F F F"
C        0.88113968      -0.03169999      -0.00389000
N        2.31903906       0.02718999       0.01144000
S        3.16017874       1.49906947      -0.02023999
C        4.66404806       0.64473973      -0.01880999
C        4.54292804      -0.68632973      -0.00388000
C        3.12191876      -1.09481952       0.00770000
O        2.77128884      -2.26349919       0.01079999
H        0.43718983       0.96695962       0.03104999
H        0.54293978      -0.61381976       0.85867967
H        0.55924977      -0.54727981      -0.91374964
H        5.61187794       1.16677948      -0.03001999
H        5.33644777      -1.41323949      -0.00197000
