16
Properties=species:S:1:pos:R:3 atomization_energy=-1612.58 smiles=C.C.N.C.C.C.C.H.H.H.H.H.H.H.H.H pbc="F F F"
C        1.21523957      -0.13761996       0.20415993
C        2.68682903      -0.07311997      -0.01648999
N        3.25512872      -0.52037979      -1.28179951
C        3.28037876       0.91864966      -0.99245958
C        4.57414798       1.59790938      -0.65501977
C        5.03378804       2.18046908      -1.89375921
C        5.41262809       2.66060903      -2.91474875
H        0.92276967       0.57113975       0.98545960
H        0.92529967      -1.14155960       0.53072979
H        0.64717978       0.10355995      -0.70087972
H        3.25000867      -0.33352988       0.87224967
H        2.53290898      -0.72898973      -1.97338927
H        2.58959898       1.54946935      -1.54347939
H        5.30958812       0.89572966      -0.24751990
H        4.39575836       2.37178916       0.09876996
H        5.75446781       3.08387882      -3.83095850
