16
Properties=species:S:1:pos:R:3 atomization_energy=-1555.89 smiles=C.C.C.C.C.O.H.H.H.H.H.H.H.H.H.H pbc="F F F"
C        0.63187973       0.26670988      -0.03638998
C        2.07679916      -0.01845999       0.21620991
C        3.06985879       0.84363965      -0.04952998
C        4.52824842       0.54918977       0.19450993
C        5.14815819       1.51523936       1.20452950
O        4.67039822       1.25588950       2.52071911
H        0.22582991      -0.46439981      -0.74202971
H        0.47401982       1.26708948      -0.45156981
H        0.06899998       0.19271992       0.89879965
H        2.30604905      -0.99525958       0.63912978
H        2.83874884       1.81641929      -0.48134982
H        5.05679812       0.63791972      -0.76148968
H        4.65458815      -0.48097981       0.54874977
H        4.93401828       2.55975904       0.95394961
H        6.23492772       1.38792940       1.22057953
H        3.69755853       1.26603953       2.47839912
