17
Properties=species:S:1:pos:R:3 atomization_energy=-1766.74 smiles=C.C.C.C.C.C.C.H.H.H.H.H.H.H.H.H.H pbc="F F F"
C        1.04603960       0.01462000       0.00624000
C        2.37663897      -0.04087999       0.01612999
C        3.31609877      -1.20751950       0.08566996
C        4.62067837      -0.38894984      -0.03406999
C        4.36240824       0.71475970      -1.12933958
C        3.27989882       1.13704956      -0.05621998
C        4.45422806       0.82008971       0.95163964
H        0.44998984      -0.89082964       0.05876997
H        0.51789981       0.96101962      -0.05262998
H        3.19509887      -1.89316925      -0.75725973
H        3.25964874      -1.73899927       1.03921959
H        5.57159779      -0.92050966      -0.04526998
H        3.98983837       0.36403985      -2.09710918
H        5.17701782       1.42732942      -1.30428955
H        2.85602899       2.13931915      -0.08994997
H        5.27767780       1.54340936       0.98028959
H        4.16726837       0.57729979       1.97980921
