14
Properties=species:S:1:pos:R:3 atomization_energy=-1351.42 smiles=C.C.O.C.C.O.H.H.H.H.H.H.H.H pbc="F F F"
C        1.01968960       0.05225998       0.12412995
C        2.51677896      -0.08986996      -0.04851998
O        3.23414864       0.95642965       0.65979974
C        4.12151844      -0.02677999       1.24589946
C        3.21869866      -1.18141949       0.78745968
O        3.83796851      -2.27226921       0.07150997
H        0.49865981      -0.79002967      -0.34399986
H        0.66156972       0.97232961      -0.34936985
H        0.73421974       0.08231996       1.18152950
H        2.80318881      -0.08893996      -1.10731951
H        5.11399809       0.01316999       0.78651968
H        4.21001833       0.09582996       2.32916915
H        2.60138891      -1.57481943       1.60296938
H        4.36950834      -1.85645922      -0.62939976
