14
Properties=species:S:1:pos:R:3 atomization_energy=-1509.69 smiles=C.C.C.C.C.C.N.H.H.H.H.H.H.H pbc="F F F"
C        1.86521928      -0.61618978      -1.14921950
C        2.05518914       0.32706988      -0.21782991
C        3.22250886       1.20921958      -0.11934996
C        3.49377858       2.19204907      -1.22740951
C        2.99836880       2.68940886       0.10644995
C        3.89859841       3.40225854       0.96710963
N        4.62708808       3.97842845       1.66239932
H        0.97456961      -1.23660951      -1.14140959
H        2.59406903      -0.79031966      -1.93466929
H        1.29211948       0.44069982       0.55155979
H        4.08609845       0.74940970       0.35479986
H        2.80989880       2.24100915      -2.06782916
H        4.52915832       2.36710917      -1.50105935
H        1.97285925       3.04546870       0.13551994
