12
Properties=species:S:1:pos:R:3 atomization_energy=-1288.62 smiles=O.C.N.C.C.C.O.H.H.H.H.H pbc="F F F"
O        1.41308948      -0.12440996       0.42461982
C        2.62000893       0.08690997       0.41336982
N        3.20330872       1.32398942       0.38286985
C        2.51259909       2.60266898       0.18839993
C        3.74544848       3.07435887      -0.60099975
C        4.23361837       1.62539936      -0.45491982
O        5.18458775       0.97901960      -0.82627964
H        3.35953861      -0.73067972       0.35815987
H        2.32916915       3.13292874       1.12660960
H        1.59011942       2.52384903      -0.39411985
H        3.55148851       3.38058858      -1.63107934
H        4.38178829       3.80440845      -0.09460996
