14
Properties=species:S:1:pos:R:3 atomization_energy=-1379.69 smiles=O.C.C.N.C.C.O.H.H.H.H.H.H.H pbc="F F F"
O        0.89587967       0.03553999       0.00057000
C        2.33993915       0.00432000       0.01367999
C        3.04655877       1.01113961       0.94463966
N        4.02416854      -0.04107998       1.31285947
C        3.01487884      -1.06874954       0.90852967
C        3.66059856      -2.29031922       0.20195992
O        4.40755838      -2.25638899      -0.77833967
H        0.63552977      -0.57403980      -0.71155970
H        2.73238895       0.03874998      -1.01133958
H        2.43894914       1.35663945       1.78932926
H        3.48472872       1.88320924       0.45011982
H        4.84903815      -0.04725998       0.70424972
H        2.38282916      -1.38346945       1.75022927
H        3.39980866      -3.26359873       0.65053975
