20
Properties=species:S:1:pos:R:3 atomization_energy=-1932.05 smiles=C.C.C.C.C.N.C.H.H.H.H.H.H.H.H.H.H.H.H.H pbc="F F F"
C        0.97352963      -0.00131000       0.03288999
C        2.50293909       0.00595000      -0.00375000
C        2.97345891       0.12826995      -1.46407945
C        3.08342866       1.13373960       0.85023970
C        4.46927810       0.62512974       1.20197956
N        4.30814845      -0.81695966       1.37962947
C        3.10133888      -1.24242953       0.65989973
H        0.59822978      -0.08419997       1.05897953
H        0.57047978      -0.84616965      -0.53638976
H        0.56543977       0.92110964      -0.39512984
H        4.06478832       0.10484996      -1.55230934
H        2.62391906       1.06586956      -1.91098927
H        2.58006893      -0.69595970      -2.07019918
H        2.49704892       1.27018950       1.76844936
H        3.11826879       2.09546915       0.32750988
H        5.17347812       0.82716968       0.38738986
H        4.85852833       1.09586960       2.10938913
H        5.12923789      -1.31102943       1.03409961
H        3.33823857      -2.02527917      -0.07010997
H        2.40981902      -1.67820939       1.39071943
