19
Properties=species:S:1:pos:R:3 atomization_energy=-1788.09 smiles=C.C.C.N.C.C.N.H.H.H.H.H.H.H.H.H.H.H.H pbc="F F F"
C        1.06394957      -0.07454997      -0.00445000
C        2.55467911      -0.05038998      -0.02407999
C        3.36462863      -0.70398970      -1.11525962
N        2.72167900      -1.40351944      -2.22345901
C        3.28377867       0.80224969      -1.03604962
C        4.47222836       1.60400937      -0.61522978
N        5.22515808       1.95800918      -1.80754934
H        0.68794976       0.70011969       0.67141972
H        0.70779971      -1.04335960       0.35924985
H        0.62611977       0.10385996      -0.99162961
H        2.95596883      -0.11044996       0.98261961
H        4.29744808      -1.16695952      -0.79749969
H        1.99821917      -0.83184966      -2.65747887
H        2.25698904      -2.24928915      -1.89551922
H        2.68356891       1.33417944      -1.76698924
H        5.11151817       1.04555961       0.07737997
H        4.14144832       2.51572901      -0.10774996
H        5.49118790       1.10373956      -2.29764920
H        6.09369740       2.41342912      -1.53465940
