19
Properties=species:S:1:pos:R:3 atomization_energy=-1787.78 smiles=C.C.C.N.C.C.N.H.H.H.H.H.H.H.H.H.H.H.H pbc="F F F"
C        0.83114970       0.25031991      -0.33067986
C        2.28600915       0.14265994       0.06835997
C        2.53465890       0.25175990       1.55693937
N        2.12023912      -0.97875964       2.22094907
C        3.16684887      -0.79142967      -0.73684972
C        3.29545858       0.69140972      -0.92808963
N        4.52815808       1.35828944      -0.52267979
H        0.70214970       0.22921991      -1.41875949
H        0.40448984       1.18992948       0.03620998
H        0.24897991      -0.57931976       0.08269997
H        1.98469926       1.10448961       1.97087921
H        3.59312846       0.41302983       1.78163934
H        1.11667961      -1.10501951       2.10846913
H        2.28232915      -0.88770963       3.22227873
H        2.71588901      -1.36809945      -1.53690944
H        3.95261850      -1.32785943      -0.21738991
H        2.89186886       1.08786957      -1.85911929
H        5.05184789       0.81180971       0.15901993
H        4.33441815       2.26070916      -0.09206997
