11
Properties=species:S:1:pos:R:3 atomization_energy=-1143.89 smiles=O.S.O.C.C.C.C.H.H.H.H pbc="F F F"
O        0.88683965       0.00032000       0.11683995
S        2.32260905       0.00050000       0.29927988
O        2.92347890      -0.00016000       1.61657937
C        3.03124883       1.26125949      -0.66280974
C        3.75940845       0.72228971      -1.65157936
C        3.75831864      -0.72459974      -1.65064939
C        3.03045878      -1.26270952      -0.66263973
H        2.87244895       2.30344903      -0.44664983
H        4.30353835       1.29570952      -2.39031911
H        4.30157824      -1.29896952      -2.38857903
H        2.87069878      -2.30403898      -0.44598982
