14
Properties=species:S:1:pos:R:3 atomization_energy=-1358.95 smiles=O.N.C.O.C.C.C.H.H.H.H.H.H.H pbc="F F F"
O        2.35678908      -0.36270984       0.39476985
N        3.30037879       0.66111975       0.23888990
C        4.48175841       0.14855995       0.28065989
O        5.62223765       0.86396967       0.16037993
C        5.45816783       2.27714904      -0.00560000
C        6.82788750       2.87553874      -0.09997996
C        7.30401690       3.82483845       0.71803969
H        1.51091945       0.12190995       0.35179986
H        4.70583815      -0.92191962       0.41563983
H        4.90277815       2.69144896       0.84437968
H        4.91491831       2.47958911      -0.93630963
H        7.46349681       2.49652912      -0.89634964
H        6.70869731       4.23073826       1.52986940
H        8.31092661       4.21048843       0.59217976
