15
Properties=species:S:1:pos:R:3 atomization_energy=-1573.34 smiles=C.C.C.S.C.C.C.H.H.H.H.H.H.H.H pbc="F F F"
C        0.94251963       0.04649998      -0.01060000
C        2.43711898       0.05071998      -0.00170000
C        3.20290878       1.20236954       0.00855000
S        4.87882788       0.88861966       0.01675999
C        4.61239837      -0.79541966       0.00664000
C        3.26999861      -1.13116961      -0.00279000
C        2.78103892      -2.54341908      -0.01320000
H        0.54011979       1.06436958      -0.00513000
H        0.55804975      -0.47284982       0.87266967
H        0.56877976      -0.45930982      -0.90624967
H        2.85327884       2.22565908       0.01159000
H        5.45803763      -1.46922940       0.00803000
H        1.68926932      -2.60108889      -0.00732000
H        3.15050865      -3.07763867       0.86775968
H        3.14055873      -3.06069891      -0.90823961
