18
Properties=species:S:1:pos:R:3 atomization_energy=-1696.13 smiles=C.C.C.C.C.O.H.H.H.H.H.H.H.H.H.H.H.H pbc="F F F"
C        0.98812958      -0.05720998       0.00975000
C        2.50833898      -0.02636999       0.01279000
C        3.03960882       1.40701940       0.00112000
C        4.56598809       1.43391943       0.00607000
C        5.10214811       2.85963885       0.00546000
O        6.52326765       2.84044880      -0.00299000
H        0.63026973      -1.09128954       0.02135999
H        0.58789978       0.43096983      -0.88447966
H        0.58377978       0.45225981       0.88997966
H        2.88105874      -0.56889981      -0.86378963
H        2.87667878      -0.55257978       0.90108962
H        2.65942888       1.94623919       0.87754963
H        2.66527893       1.93031923      -0.88726962
H        4.95912826       0.89900965      -0.86692964
H        4.95161788       0.90029963       0.88354963
H        4.76798835       3.41185874       0.88999966
H        4.76709812       3.40201858      -0.88420967
H        6.81449729       2.37491908       0.79963971
