14
Properties=species:S:1:pos:R:3 atomization_energy=-1420.96 smiles=C.C.C.C.C.O.H.H.H.H.H.H.H.H pbc="F F F"
C        1.45610944      -0.65042974       0.41475985
C        2.40450895      -0.12400995      -0.37014986
C        3.14875874       1.14322953      -0.05428998
C        4.65133813       0.89896966       0.03937998
C        5.41594776       2.17135917       0.30688988
O        4.90421795       3.27441870       0.46264983
H        0.93895962      -1.56119935       0.12855995
H        1.16489949      -0.18365992       1.35074953
H        2.64696901      -0.62111976      -1.30758953
H        2.78575903       1.58326938       0.88285963
H        2.93761879       1.87451932      -0.84384966
H        5.03517788       0.47733980      -0.89603965
H        4.88157829       0.19794993       0.84938965
H        6.51199753       2.05272916       0.36115987
