15
Properties=species:S:1:pos:R:3 atomization_energy=-1377.21 smiles=C.C.C.S.O.O.O.H.H.H.H.H.H.H.H pbc="F F F"
C        0.97609963       0.00157000      -0.03693999
C        2.50074911       0.00589000      -0.01229999
C        3.07362887      -0.81803971      -1.16057958
S        3.15175870       1.68889928      -0.02067999
O        2.59168904       2.17697909      -1.45340937
O        2.50043899       2.47420891       1.00249960
O        4.59058837       1.65848932      -0.15682993
H        0.56711980       0.56367977       0.80887970
H        0.59055980      -1.02147957       0.02512999
H        0.58712979       0.45407981      -0.95503962
H        2.84069886      -0.42590983       0.93666965
H        2.78710900      -0.40631984      -2.13384911
H        2.71470886      -1.85140931      -1.11225953
H        4.16727846      -0.84312970      -1.11990958
H        3.35066866       2.52632893      -1.96797916
