11
Properties=species:S:1:pos:R:3 atomization_energy=-1158.39 smiles=C.C.C.C.S.N.N.H.H.H.H pbc="F F F"
C        2.63651897      -1.13572962       0.39845985
C        2.16449903       0.09382996       0.14734994
C        2.95155883       1.28250945       0.08776996
C        2.44368893       2.54081906      -0.17285994
S        3.77029857       3.63178864      -0.13851994
N        4.87769794       2.42400912       0.20297991
N        4.31999842       1.22719957       0.29754987
H        1.97141919      -1.99254916       0.42699984
H        3.69244857      -1.31641948       0.58070979
H        1.09550952       0.19577993      -0.02519999
H        1.43242941       2.85990884      -0.36895987
