12
Properties=species:S:1:pos:R:3 atomization_energy=-1246.32 smiles=C.C.O.C.C.C.H.H.H.H.H.H pbc="F F F"
C        1.02334960      -0.05710998      -0.07434997
C        2.48823903       0.16646993       0.04280999
O        3.26344859      -0.44289983      -0.99425959
C        3.23622861       0.99417960      -0.97086962
C        4.49361848       1.57615944      -0.61300977
C        5.54641766       2.06788922      -0.31630988
H        0.48278981       0.65687977       0.55447977
H        0.76797970      -1.06731958       0.26003990
H        0.66964975       0.06070998      -1.10382952
H        2.85342897       0.09606996       1.05840964
H        2.67148905       1.48865941      -1.75211936
H        6.48538768       2.49937895      -0.05461998
