20
Properties=species:S:1:pos:R:3 atomization_energy=-1914.75 smiles=C.C.C.C.N.C.C.H.H.H.H.H.H.H.H.H.H.H.H.H pbc="F F F"
C        0.67065977       0.49896979       0.65418973
C        1.86976932       0.21754991      -0.23741990
C        3.05771888       1.12929958       0.03694999
C        3.94520854       0.71699971       1.19475948
N        3.35650861       1.15048961       2.45157908
C        3.75619855       1.71349930      -1.18243953
C        2.93292896       2.60595888      -0.30478989
H       -0.16279993      -0.15598994       0.37982986
H        0.33271986       1.53537943       0.55171977
H        0.89775967       0.32027987       1.70901929
H        1.54812935       0.32313989      -1.28035946
H        2.17486909      -0.82861970      -0.11839995
H        4.94307798       1.16033948       1.10108958
H        4.07778843      -0.37036987       1.20246947
H        3.26626865       2.16426916       2.44406895
H        3.99370837       0.92589965       3.21288873
H        3.37236864       1.48432941      -2.16965921
H        4.83303833       1.84195925      -1.16246954
H        3.45464857       3.33095881       0.30936989
H        1.98909916       2.96951876      -0.69609974
