11
Properties=species:S:1:pos:R:3 atomization_energy=-1240.61 smiles=O.C.N.C.C.C.N.H.H.H.H pbc="F F F"
O        1.03763962       0.06139998       0.22702991
C        2.25562922       0.01024000       0.08337997
N        2.96464877       1.18549956      -0.03330998
C        4.31766840       1.24726949      -0.19693993
C        5.03284785       0.12450995      -0.24976990
C        4.23528830      -1.10713960      -0.12002995
N        2.95562894      -1.16984959       0.03447999
H        2.40090895       2.02446919       0.00953000
H        4.76115824       2.23372914      -0.27729988
H        6.10372757       0.07659997      -0.37611986
H        4.81252835      -2.04557922      -0.16180994
