14
Properties=species:S:1:pos:R:3 atomization_energy=-1464.53 smiles=O.C.C.C.C.N.C.H.H.H.H.H.H.H pbc="F F F"
O        0.98302959      -0.02809999       0.23977990
C        2.19382901      -0.00786000       0.06062998
C        2.95305894       1.24332947       0.00099000
C        4.26344847       1.34937950      -0.22056991
C        4.66028832       2.78085901      -0.20636992
N        3.42700870       3.54661851       0.04838998
C        2.32320909       2.56906906       0.18754992
H        2.78005887      -0.93221966      -0.07270997
H        4.95373797       0.53581981      -0.38395986
H        5.38924809       2.97504885       0.58627975
H        5.09961823       3.06940889      -1.16687953
H        3.23367880       4.14071833      -0.75621968
H        1.55539939       2.75620902      -0.57061976
H        1.87395928       2.66400895       1.18105954
