17
Properties=species:S:1:pos:R:3 atomization_energy=-1670.53 smiles=C.C.C.N.C.N.C.H.H.H.H.H.H.H.H.H.H pbc="F F F"
C        1.02972960       0.00382000       0.14681994
C        2.53515901       0.04171999      -0.07657997
C        3.03327883      -1.17238956      -0.89440965
N        3.59129856      -0.65018977      -2.17998914
C        3.47349872       0.63775974      -2.06471918
N        2.87703885       1.14660951      -0.95615965
C        3.20520877       2.44215905      -0.41171983
H        0.69196971       0.90030966       0.67645973
H        0.74733970      -0.87085964       0.74142973
H        0.48416981      -0.03969999      -0.80290967
H        3.06608871       0.09994996       0.88080963
H        2.23851915      -1.89517920      -1.10381955
H        3.83224841      -1.69193937      -0.35450986
H        3.83194839       1.36033951      -2.81441881
H        2.66137890       2.62884886       0.52080979
H        2.93353885       3.22930868      -1.12064954
H        4.27626841       2.51485897      -0.20428992
