15
Properties=species:S:1:pos:R:3 atomization_energy=-1421.2 smiles=C.C.C.S.O.O.C.H.H.H.H.H.H.H.H pbc="F F F"
C        0.96623959      -0.00961000       0.02584999
C        2.48294890       0.01637000       0.03521999
C        3.13219874       1.09837954       0.93871965
S        4.47041813      -0.00797999       1.28645944
O        4.75863796      -0.06954997       2.70243899
O        5.49986759       0.05783998       0.26972991
C        3.17092882      -1.12267954       0.83416966
H        0.59942974      -0.86851965      -0.54526981
H        0.56835975       0.89817967      -0.43895984
H        0.55841980      -0.07773997       1.03973959
H        2.85868882       0.07219997      -0.99740963
H        2.56870898       1.35709945       1.84126925
H        3.43721853       2.01291923       0.42381984
H        3.50666867      -1.97380928       0.23619991
H        2.61857897      -1.48447942       1.70741938
