10
Properties=species:S:1:pos:R:3 atomization_energy=-1113.93 smiles=O.C.C.C.C.N.S.H.H.H pbc="F F F"
O        2.64054895      -1.17547948       0.08837997
C        2.14349927      -0.05641997      -0.00556000
C        2.85267879       1.19479948       0.01594000
C        2.37733919       2.48719892      -0.08268997
C        3.45933865       3.41198869      -0.01099000
N        4.67905824       2.90182889       0.13118995
S        4.55032842       1.24581947       0.18374992
H        1.04937959       0.03834999      -0.11875995
H        1.33691951       2.76037879      -0.19756992
H        3.37828859       4.49078833      -0.06172997
