12
Properties=species:S:1:pos:R:3 atomization_energy=-1249.56 smiles=C.C.C.C.O.O.H.H.H.H.H.H pbc="F F F"
C        1.04061959      -0.09363997       0.11650995
C        2.51581909       0.17538994      -0.09745996
C        3.18621882       1.17605959       0.84920968
C        3.99577850      -0.05750998       1.27961949
O        4.88991784      -0.30924987       2.05169914
O        3.33025859      -0.90107965       0.44806982
H        0.71377971      -0.94732963      -0.48547982
H        0.44486982       0.77480968      -0.18081993
H        0.81784970      -0.31462989       1.16583954
H        2.76063895       0.34308986      -1.15330953
H        2.56347891       1.59371942       1.64269932
H        3.78285860       1.95355919       0.36864984
