12
Properties=species:S:1:pos:R:3 atomization_energy=-1239.32 smiles=O.N.C.C.C.C.O.H.H.H.H.H pbc="F F F"
O        0.72315975       1.03334961       0.31097989
N        2.01045925       0.48663982       0.25195990
C        2.86877879       1.44947943       0.16599994
C        4.31543829       1.17674959       0.08792997
C        5.16678781       2.20316906       0.00123000
C        6.61526763       1.94118928      -0.07687997
O        7.41986722       2.86137892      -0.15671993
H        0.15994993       0.23885990       0.37368985
H        2.55694908       2.50960896       0.14767994
H        4.61721840       0.13607995       0.10566996
H        4.86537812       3.24381873      -0.01637999
H        6.92886744       0.88436964      -0.05954998
