16
Properties=species:S:1:pos:R:3 atomization_energy=-1549.87 smiles=C.C.C.O.C.C.H.H.H.H.H.H.H.H.H.H pbc="F F F"
C        3.15301885      -1.24105949      -0.30446987
C        2.44078914       0.00348000       0.19950992
C        3.40447855       1.11181959       0.47597980
O        3.77487863       1.88326929      -0.67556975
C        2.98943880       2.55246894       0.32089988
C        3.70477849       3.63978855       1.03792961
H        2.43320911      -2.04376925      -0.49088980
H        3.88351859      -1.59887934       0.42836985
H        3.68785866      -1.03552956      -1.23742945
H        1.90225923      -0.23631991       1.12357961
H        1.69048934       0.31312987      -0.53784981
H        4.17270838       0.85671969       1.19416953
H        1.96325918       2.79494893       0.08372997
H        4.75472834       3.38951859       1.22514950
H        3.22423884       3.83337860       2.00224915
H        3.67490852       4.56329824       0.45068984
