9
Properties=species:S:1:pos:R:3 atomization_energy=-1052.74 smiles=N.C.C.C.N.C.S.H.H pbc="F F F"
N        0.83318967       0.25642990      -0.00745000
C        1.98874918       0.14462994      -0.00339000
C        3.40543867       0.02224999       0.00154000
C        4.30322849       1.06892958       0.00332000
N        5.63968787       0.71133973       0.00819999
C        5.73539762      -0.60025979       0.01006999
S        4.25392851      -1.46574937       0.00619000
H        4.04261850       2.12163906       0.00121000
H        6.69044720      -1.11043959       0.01382000
