12
Properties=species:S:1:pos:R:3 atomization_energy=-1253.78 smiles=O.C.C.C.O.N.C.H.H.H.H.H pbc="F F F"
O        2.27862922      -0.54404978      -1.31558944
C        2.37002915      -0.03495999       0.00686000
C        2.87177875       1.35246942       0.00339000
C        2.15315927       2.52451896      -0.00719000
O        2.99710891       3.58563852       0.00684000
N        4.30521837       3.12952882       0.01927999
C        4.21150835       1.79774930       0.00221000
H        1.92878921      -1.44803938      -1.24761948
H        3.04080890      -0.68374970       0.58034978
H        1.37654952      -0.08525997       0.46537980
H        1.10102952       2.76688894      -0.02361999
H        5.12006817       1.21207950      -0.00631000
