13
Properties=species:S:1:pos:R:3 atomization_energy=-1300.91 smiles=C.C.C.C.N.N.S.H.H.H.H.H.H pbc="F F F"
C        0.87653968      -0.16774993       0.02879999
C        2.38987904      -0.01805999      -0.01612999
C        2.80358901       1.41160943      -0.02720999
C        3.05456878       2.28586911       1.01357958
N        3.42712856       3.56536849       0.63931972
N        3.46989871       3.69454847      -0.67638970
S        3.06476877       2.28391909      -1.48214939
H        0.60162976      -1.22691948       0.05091998
H        0.40571983       0.28672987      -0.84899968
H        0.45712983       0.31042987       0.92045963
H        2.78258899      -0.54059978      -0.89694962
H        2.82597887      -0.51473980       0.85947969
H        2.98249893       2.05057917       2.06681921
