15
Properties=species:S:1:pos:R:3 atomization_energy=-1368.25 smiles=C.C.O.S.C.O.O.H.H.H.H.H.H.H.H pbc="F F F"
C        1.22503948      -0.44096981      -0.44103983
C        2.71609895      -0.36079985      -0.18319992
O        3.12549884       0.99121963      -0.31879988
S        4.70658808       1.31263943      -0.09687996
C        4.61704833       3.06643869      -0.36054985
O        5.03735802       1.06666958       1.29071955
O        5.45537806       0.71595973      -1.18204956
H        0.86647967      -1.46934939      -0.34212986
H        0.98783959      -0.07922997      -1.44702942
H        0.67712973       0.19389991       0.26311990
H        3.25299880      -0.98489961      -0.90533963
H        2.93866874      -0.71458969       0.82894968
H        4.24270835       3.25345880      -1.36867943
H        5.62307791       3.47707854      -0.25321990
H        3.95334849       3.50259857       0.38819984
