15
Properties=species:S:1:pos:R:3 atomization_energy=-1517.83 smiles=C.C.C.N.C.C.N.H.H.H.H.H.H.H.H pbc="F F F"
C        0.94805963       0.00337000       0.01301000
C        2.46327892      -0.00385000       0.01467999
C        3.15964885       1.00355957       0.95226965
N        4.16824842      -0.03621999       1.26241946
C        3.16178887      -1.08073957       0.88686968
C        3.74240864      -2.19894906       0.16474993
N        4.20953840      -3.08003885      -0.42989982
H        0.56052979      -0.85065964      -0.55151979
H        0.56851980       0.91672961      -0.45600983
H        0.54106981      -0.04967998       1.02809961
H        2.85449886       0.05273998      -1.01240959
H        2.57354895       1.30905949       1.82712924
H        3.55963855       1.89999923       0.46964982
H        4.97657798      -0.01103000       0.63674973
H        2.56626894      -1.40387939       1.75135934
