12
Properties=species:S:1:pos:R:3 atomization_energy=-1316.15 smiles=C.C.C.C.C.C.H.H.H.H.H.H pbc="F F F"
C        1.32341953      -0.34272988      -0.76428967
C        2.53919909      -0.15125994      -0.23987991
C        3.23145880       1.11455952      -0.30501988
C        4.44943830       1.30816951       0.21977991
C        5.09879816       2.56871907       0.13567995
C        5.65195773       3.63328850       0.06692997
H        0.83884965      -1.31155946      -0.69266974
H        0.78139969       0.44796983      -1.27353945
H        3.03585892      -0.98059964       0.25969990
H        2.72470899       1.93689927      -0.80724970
H        4.97787799       0.50591979       0.72611971
H        6.14118766       4.57675809       0.00553000
