14
Properties=species:S:1:pos:R:3 atomization_energy=-1459.03 smiles=O.C.C.C.C.C.N.H.H.H.H.H.H.H pbc="F F F"
O        2.65524901      -0.96134960      -1.22770953
C        2.38585915      -0.21495991      -0.04739998
C        3.18596877       1.08900960      -0.06192998
C        4.67803831       0.87546967       0.07366997
C        5.53634762       1.21611958      -0.90346967
C        5.17992821       0.31845987       1.29109943
N        5.56546766      -0.13282995       2.28649918
H        2.17044926      -1.80191933      -1.15217959
H        2.62320900      -0.83152965       0.82551969
H        1.31459954       0.01044000      -0.02937999
H        2.84634881       1.72908934       0.76186969
H        2.96843879       1.62761937      -0.99317961
H        5.18736794       1.64049937      -1.84026927
H        6.60849758       1.06760964      -0.80155970
