12
Properties=species:S:1:pos:R:3 atomization_energy=-1355.23 smiles=C.C.C.C.C.C.N.H.H.H.H.H pbc="F F F"
C        1.02301961       0.01815999      -0.09797996
C        2.22233916       0.01364999      -0.04611998
C        3.65500867       0.00858000       0.02128999
C        4.42368840      -0.72474969      -1.04536960
C        4.43081827       0.78276966      -1.02067962
C        5.62275796       1.47239944      -0.61833976
N        6.58862750       2.02387924      -0.28984989
H       -0.04175998       0.02101999      -0.14024994
H        4.06700833      -0.03179999       1.02666959
H        3.87489845      -1.21394953      -1.84285932
H        5.31819766      -1.25906951      -0.74277970
H        3.86296848       1.28169946      -1.79961933
