16
Properties=species:S:1:pos:R:3 atomization_energy=-1493.94 smiles=O.C.C.C.O.N.C.H.H.H.H.H.H.H.H.H pbc="F F F"
O        0.77871968       0.01155000      -0.11324996
C        2.19239905      -0.14055994      -0.14741995
C        2.83199899       1.23980957      -0.18942993
C        4.35057845       1.16715949      -0.15295995
O        4.81879828       0.45444983      -1.29805949
N        6.21536750       0.35798986      -1.22027951
C        6.64470762      -0.25472990      -2.27048901
H        0.39755985      -0.88315965      -0.11415995
H        2.45483895      -0.72748968      -1.03305962
H        2.50221894      -0.68820972       0.74813972
H        2.46689912       1.84266931       0.65071973
H        2.50275893       1.75034926      -1.10334958
H        4.68616792       0.65874973       0.75855968
H        4.76887807       2.17991925      -0.16616994
H        7.72353679      -0.43042984      -2.40119913
H        5.97621752      -0.62308977      -3.06666882
