12
Properties=species:S:1:pos:R:3 atomization_energy=-1281.82 smiles=C.C.C.N.S.C.C.H.H.H.H.H pbc="F F F"
C        2.14821913       0.67738976       0.97422960
C        2.34879901       0.00066000      -0.41423983
C        2.96120874       1.27515954      -0.83394969
N        3.53164871       1.92935923      -1.81433933
S        3.89194847       3.45887865      -1.14337954
C        3.24686866       3.12678876       0.45643983
C        2.78675902       1.86057928       0.38804987
H        2.68571902       0.27210989       1.83866923
H        1.12604956       0.86019965       1.32410953
H        1.46417937      -0.27054989      -1.00033964
H        3.02997884      -0.85363967      -0.49017980
H        3.26697871       3.85561858       1.25281952
