20
Properties=species:S:1:pos:R:3 atomization_energy=-1911.07 smiles=C.C.C.C.C.C.N.H.H.H.H.H.H.H.H.H.H.H.H.H pbc="F F F"
C        2.36369917      -0.47148982      -1.50859939
C        2.44869897       0.01438999      -0.07098997
C        3.25970879       1.30051946       0.01284999
C        2.59172891       2.59550909      -0.53300979
C        3.26348871       3.34934872       0.63773975
C        3.25217872       2.00681925       1.39859949
N        4.53642799       1.81005928       2.06058915
H        1.79769934      -1.40688945      -1.56174943
H        3.36168872      -0.65143976      -1.92240927
H        1.86467929       0.26555988      -2.14652927
H        2.92308880      -0.76046970       0.54145979
H        1.43737939       0.16453993       0.32286986
H        4.26777847       1.16039953      -0.40842984
H        1.49631943       2.59867887      -0.48422980
H        2.90342892       2.90448896      -1.53412938
H        4.25058815       3.75096848       0.37654986
H        2.66545884       4.14996828       1.08132952
H        2.36812910       1.83784928       2.02188923
H        5.35289775       2.00404916       1.48124945
H        4.66822817       0.86509967       2.42075909
