14
Properties=species:S:1:pos:R:3 atomization_energy=-1365.5 smiles=C.C.O.C.C.O.H.H.H.H.H.H.H.H pbc="F F F"
C        1.16890953      -0.05651998       0.16960993
C        2.65874885       0.05476998      -0.08645997
O        3.19968878       1.13917961       0.67874976
C        4.44937825       0.63786976       1.14773957
C        4.16660827      -0.82345965       1.36333947
O        3.31448865      -1.16936953       0.27110991
H        0.73647968      -0.88765967      -0.39576984
H        0.65608972       0.87196964      -0.09968996
H        0.97269959      -0.24392990       1.23097949
H        2.84869877       0.24548991      -1.14818961
H        5.19734815       0.79419970       0.36283986
H        4.76177797       1.15871951       2.05634923
H        5.06665822      -1.44462938       1.36303945
H        3.61103869      -0.99265962       2.29172900
