17
Properties=species:S:1:pos:R:3 atomization_energy=-1782.46 smiles=C.C.C.C.C.C.C.H.H.H.H.H.H.H.H.H.H pbc="F F F"
C        0.86255964      -1.23842957       0.86048964
C        1.12908952      -0.41670984      -0.37351984
C        0.99380962       1.08035956      -0.40351985
C       -0.24842990       1.63018937       0.31371989
C       -1.47916936       0.78296970       0.14430995
C       -1.39305943      -0.52796978      -0.12835995
C       -0.12533995      -1.25057944      -0.28255988
H        1.46249948      -2.12891907       1.01425962
H        0.59819976      -0.73358973       1.78250926
H        1.91762924      -0.75850971      -1.03522961
H        1.89456931       1.53958945       0.01940999
H        0.95196963       1.38841943      -1.45622942
H       -0.04567998       1.72576929       1.38745944
H       -0.44921982       2.64153885      -0.05843998
H       -2.44882893       1.25322956       0.27795988
H       -2.30858901      -1.10671959      -0.22905991
H       -0.17535992      -2.14520907      -0.89433963
