11
Properties=species:S:1:pos:R:3 atomization_energy=-1099.75 smiles=C.C.O.C.C.H.H.H.H.H.H pbc="F F F"
C        1.00060963      -0.05876997      -0.00078000
C        2.51999896       0.00000000       0.00000000
O        3.00236876      -0.67851976      -1.15592949
C        3.00201878       1.36116943       0.00000000
C        3.39929870       2.48306901       0.00000000
H        0.57799975       0.43095983       0.88371964
H        0.65721972      -1.09965962      -0.02073999
H        0.58325979       0.42590983      -0.89233965
H        2.89949886      -0.53941976       0.87387966
H        2.79680887      -0.11400996      -1.92043920
H        3.76075843       3.48571862       0.00164000
