17
Properties=species:S:1:pos:R:3 atomization_energy=-1653.74 smiles=C.C.C.N.C.C.N.H.H.H.H.H.H.H.H.H.H pbc="F F F"
C        1.23290957      -0.23702990      -0.38077985
C        2.63238906      -0.01897999       0.07720997
C        3.79161854      -0.54141980      -0.74313971
N        3.56350856       0.89103964      -0.58064980
C        3.13929884       1.65824936      -1.64665941
C        2.22796918       2.82737880      -1.34854945
N        3.48969864       1.48743939      -2.88189875
H        0.58475977       0.56623980      -0.01736999
H        0.85421965      -1.18187949       0.02264999
H        1.14717952      -0.28297988      -1.47131946
H        2.72608899      -0.01258999       1.15580951
H        3.58370869      -0.96399965      -1.71585936
H        4.67377795      -0.89154967      -0.22719992
H        2.08299919       2.94823891      -0.27173988
H        1.25830949       2.65899891      -1.82574924
H        2.66789888       3.74360848      -1.75289932
H        4.15689831       0.71457972      -2.93174881
