18
Properties=species:S:1:pos:R:3 atomization_energy=-1767.17 smiles=C.C.N.C.C.C.C.H.H.H.H.H.H.H.H.H.H.H pbc="F F F"
C        1.05177957      -0.05105998      -0.02524999
C        2.53895912      -0.03538999      -0.09728996
N        3.22039861      -0.53984979      -1.27797947
C        3.26023868       0.90829966      -1.03736957
C        4.57730818       1.57530933      -0.65737976
C        5.93396768       0.97517963      -0.94535962
C        5.48566790       2.19011924      -1.69799936
H        0.70385975       0.70508973       0.68521972
H        0.70044974      -1.02838960       0.31975988
H        0.58565978       0.15570995      -0.99434961
H        3.00395870      -0.26471990       0.85448965
H        2.56702896      -0.75409972      -2.03170921
H        2.63137898       1.50067947      -1.70010935
H        4.51242826       2.13658918       0.27586988
H        5.97505781       0.03251999      -1.47965939
H        6.70681744       1.09106963      -0.19510993
H        5.95707769       3.13691885      -1.46333949
H        5.22685778       2.06648916      -2.74309889
