17
Properties=species:S:1:pos:R:3 atomization_energy=-1564.18 smiles=C.C.S.O.O.C.C.H.H.H.H.H.H.H.H.H.H pbc="F F F"
C        1.06620957      -0.07914997       0.04282998
C        2.57347905       0.07689997       0.03206999
S        3.05798888       1.79449928      -0.00403000
O        2.63712885       2.34895899      -1.27633944
O        2.65083902       2.39843913       1.24992957
C        4.84026813       1.69646934      -0.01214999
C        5.47614795       3.07168870      -0.03940998
H        0.79355966      -1.13857957       0.06570997
H        0.61672976       0.37019986      -0.84842966
H        0.62559978       0.40611984       0.91955964
H        3.00109878      -0.40400985      -0.85256966
H        3.01016882      -0.36892984       0.93051964
H        5.13383789       1.12214953      -0.89571963
H        5.14370807       1.15303954       0.88743963
H        5.17250816       3.62917852      -0.93121961
H        6.56699717       2.98638887      -0.04480998
H        5.18367785       3.65892863       0.83688967
