13
Properties=species:S:1:pos:R:3 atomization_energy=-1428.22 smiles=C.C.C.N.C.N.C.H.H.H.H.H.H pbc="F F F"
C        0.97873964      -0.00456000       0.00379000
C        2.46768892       0.00638000       0.00199000
C        3.19171864       1.18207958       0.00346000
N        4.53761799       1.23527947       0.00352000
C        5.16455820       0.04934998       0.00255000
N        4.57503820      -1.15552954       0.00171000
C        3.22763875      -1.14552953       0.00176000
H        0.58534978      -1.02645958      -0.01170999
H        0.59394974       0.51508979      -0.87970965
H        0.59661978       0.48807981       0.90370964
H        2.69731894       2.14987922       0.00469000
H        6.24877767       0.06627997       0.00250000
H        2.76674889      -2.12963922       0.00153000
