14
Properties=species:S:1:pos:R:3 atomization_energy=-1389.73 smiles=O.C.C.N.C.C.O.H.H.H.H.H.H.H pbc="F F F"
O        2.13079918      -0.12540995      -1.38503946
C        2.28149898       0.15817994       0.00546000
C        3.39998857       1.17611952       0.19887993
N        3.21281883       2.43820906      -0.55073978
C        2.89203894       3.24410867       0.63467973
C        3.26537868       2.01437922       1.47604941
O        3.33263858       1.77655928       2.66470891
H        1.49946941      -0.86265963      -1.45880938
H        2.51788896      -0.77223969       0.53184982
H        1.32083944       0.53377978       0.37463984
H        4.39743838       0.74533972       0.06150997
H        2.48661906       2.37555899      -1.26745952
H        3.54033849       4.10967830       0.78501970
H        1.84121930       3.53132850       0.72303970
