12
Properties=species:S:1:pos:R:3 atomization_energy=-1298.51 smiles=O.C.C.C.N.C.C.H.H.H.H.H pbc="F F F"
O        0.99043961       0.01634999       0.02064999
C        2.41999907       0.00000000       0.00000000
C        2.86737885      -0.77918971      -1.23616956
C        4.29510847      -1.10821958      -1.17090951
N        5.42155809      -1.37800951      -1.11298952
C        2.90201889       1.36116943       0.00000000
C        3.29929881       2.48306901       0.00000000
H        0.72656968       0.60402974       0.75088969
H        2.74428889      -0.51943979       0.90958965
H        2.64809895      -0.21386992      -2.15070913
H        2.28606920      -1.70661937      -1.31299951
H        3.65957864       3.48670851      -0.00278000
