13
Properties=species:S:1:pos:R:3 atomization_energy=-1419.85 smiles=C.C.C.C.N.C.N.H.H.H.H.H.H pbc="F F F"
C        2.70046905      -1.09191961       0.38155984
C        2.19570913       0.12980994       0.16120993
C        2.95877879       1.32554946       0.09919996
C        2.47752908       2.59390905      -0.12431995
N        3.58604856       3.39654879      -0.09304997
C        4.66880803       2.59635893       0.14319994
N        4.31925808       1.33569949       0.26417990
H        2.05913913      -1.96457925       0.41648984
H        3.76678864      -1.23792945       0.53085980
H        1.12192962       0.21876991       0.01839999
H        1.48554943       2.98499878      -0.29634988
H        3.60748864       4.39834829      -0.22051992
H        5.67548762       2.98511889       0.21575991
