14
Properties=species:S:1:pos:R:3 atomization_energy=-1411.91 smiles=O.C.C.C.C.C.N.H.H.H.H.H.H.H pbc="F F F"
O        1.00071959      -0.00841000      -0.03306999
C        2.41999907       0.00000000       0.00000000
C        2.90201889       1.36116943       0.00000000
C        3.29929881       2.48306901       0.00000000
C        3.88872848       3.78667839       0.04717998
C        3.79503839       4.67712840      -1.16348958
N        3.02196884       4.96010781       0.03902998
H        0.72586972      -0.93911966      -0.01641000
H        2.78745898      -0.54581976      -0.87440969
H        2.74654902      -0.53061977       0.89968962
H        4.78663815       3.87185837       0.65377975
H        3.22699884       4.33926846      -2.01896925
H        4.62356807       5.33826809      -1.38128943
H        3.44428860       5.71181777       0.58586978
