9
Properties=species:S:1:pos:R:3 atomization_energy=-1051.63 smiles=N.C.C.C.S.N.C.H.H pbc="F F F"
N        0.90122966       0.00861000      -0.00717000
C        2.06106921       0.03223999      -0.00400000
C        3.48625861       0.06326998      -0.00011000
C        4.23622849       1.22038953       0.00176000
S        5.89526764       0.79140967       0.00635000
N        5.64648769      -0.85079968       0.00593000
C        4.33486831      -1.07765961       0.00238000
H        3.91499843       2.25285914       0.00072000
H        4.01514845      -2.11299911       0.00167000
