13
Properties=species:S:1:pos:R:3 atomization_energy=-1429.56 smiles=C.C.C.C.S.C.C.H.H.H.H.H.H pbc="F F F"
C        2.66665893      -1.14606952       0.37885987
C        2.20640924       0.09486996       0.16326993
C        2.99452883       1.28631952       0.06611998
C        2.41765895       2.52129896      -0.15552994
S        3.57317865       3.78259845      -0.23050990
C        4.85966786       2.68907906       0.03289999
C        4.41606851       1.39162946       0.17468994
H        1.97760926      -1.98279921       0.43503984
H        3.72013865      -1.36707940       0.50414981
H        1.12855949       0.20681992       0.05141998
H        1.36950948       2.75719892      -0.27915990
H        5.87900792       3.04757870       0.07140998
H        5.09241821       0.56408981       0.34819985
