13
Properties=species:S:1:pos:R:3 atomization_energy=-1361.94 smiles=O.C.C.N.C.C.N.H.H.H.H.H.H pbc="F F F"
O        2.71772901      -0.72066974      -1.04585956
C        2.39924911      -0.08957996       0.18993992
C        2.83792877       1.32379942       0.08728997
N        2.07949923       2.40148906       0.10856995
C        2.93775883       3.46172873      -0.02962999
C        4.23478818       3.02574876      -0.15016995
N        4.15851828       1.66275940      -0.07982997
H        2.18536910      -0.25702990      -1.71894928
H        2.92514883      -0.60938976       0.99559959
H        1.32190946      -0.16684993       0.36326986
H        2.57512904       4.48141826      -0.03960998
H        5.17193788       3.54766872      -0.28148990
H        4.92261795       1.00452960      -0.16099994
