14
Properties=species:S:1:pos:R:3 atomization_energy=-1465.07 smiles=C.C.C.N.C.C.C.H.H.H.H.H.H.H pbc="F F F"
C        1.99466925      -0.59041975      -1.20418948
C        2.11305917       0.34021987      -0.24728990
C        3.24613867       1.25066953      -0.06643997
N        3.55142871       2.18746925      -1.14152958
C        2.98928892       2.73456884       0.08995996
C        3.84998856       3.49695871       0.94480960
C        4.56904836       4.13823842       1.66064941
H        1.12228957      -1.23372952      -1.25483956
H        2.77149903      -0.73044972      -1.95026929
H        1.31031950       0.42242984       0.48383982
H        4.10690846       0.82442968       0.43969983
H        2.83796889       2.14470920      -1.86862928
H        1.96610926       3.08903874       0.01509000
H        5.21464798       4.70736828       2.28852918
