15
Properties=species:S:1:pos:R:3 atomization_energy=-1458.84 smiles=O.N.C.C.C.C.N.H.H.H.H.H.H.H.H pbc="F F F"
O        1.19001957       0.08974996       0.56174975
N        2.36403906       0.02276999      -0.19471993
C        3.00885872       1.14410954      -0.15505994
C        2.58847888       2.39887894       0.57361979
C        3.31123862       3.45998865      -0.26088989
C        4.56537796       2.76612892      -0.79666971
N        4.19164837       1.37210950      -0.80381970
H        0.82054970      -0.80492971       0.44632984
H        2.96981878       2.36165907       1.59851940
H        1.50828940       2.55346893       0.57626977
H        2.67157888       3.75592855      -1.10253960
H        3.54330869       4.36192831       0.31274986
H        4.82835810       3.12287889      -1.79635934
H        5.41603810       2.91909894      -0.12552995
H        4.43788809       0.76375972      -1.57385944
