17
Properties=species:S:1:pos:R:3 atomization_energy=-1745.67 smiles=C.C.C.C.C.C.C.H.H.H.H.H.H.H.H.H.H pbc="F F F"
C        0.90655965      -0.01956999       0.13973995
C        2.42117897      -0.00404000      -0.02865999
C        3.14905876       1.06056960       0.84771966
C        4.20882834      -0.00582000       1.18762949
C        3.16782867      -1.08000957       0.81703965
C        2.79320886       0.01954999      -1.43897943
C        3.09798868       0.03817999      -2.60047900
H        0.62025975      -0.03822998       1.19771958
H        0.46405983      -0.90341964      -0.33424987
H        0.44889983       0.87101968      -0.30691988
H        2.57808889       1.39451941       1.72295933
H        3.53074864       1.94752923       0.33155987
H        5.08102798       0.01170000       0.52496979
H        4.55231830      -0.01770999       2.22474918
H        3.56551863      -1.94523919       0.27490989
H        2.60343910      -1.44969947       1.68152931
H        3.36801870       0.05477998      -3.63093853
