12
Properties=species:S:1:pos:R:3 atomization_energy=-1166.55 smiles=O.S.O.C.C.C.N.H.H.H.H.H pbc="F F F"
O        0.99414964      -0.07512997       0.37222986
S        2.42051912       0.02038999       0.16082993
O        3.35452857       0.24967990       1.24043951
C        2.98253880      -1.33655943      -0.85710966
C        3.45943857      -0.63619977      -2.08866920
C        3.34531873       0.69251973      -2.14051924
N        2.70809904       1.23288951      -0.99537962
H        2.14459918      -2.00309926      -1.07013963
H        3.79394857      -1.85745921      -0.34664987
H        3.92111847      -1.19926953      -2.89046893
H        3.69256842       1.34619950      -2.93067893
H        3.11569880       2.08602919      -0.60980977
