14
Properties=species:S:1:pos:R:3 atomization_energy=-1363.65 smiles=C.C.C.O.C.O.H.H.H.H.H.H.H.H pbc="F F F"
C        1.02652960      -0.01159000      -0.00165000
C        2.53823897      -0.01125000       0.08412997
C        3.10399870       1.11643952       0.91137962
O        4.40647840       0.64156976       1.25288954
C        4.24921850      -0.77776972       1.34647946
O        3.00236876      -1.17776952       0.76793971
H        0.67860972      -0.87631965      -0.57735978
H        0.65567974       0.89995968      -0.47934981
H        0.57519976      -0.09778996       0.99299964
H        2.97999884      -0.01729999      -0.91927961
H        2.54700900       1.27413949       1.84259929
H        3.17141884       2.06211916       0.36715986
H        5.07280804      -1.26667944       0.81860966
H        4.26647846      -1.07791952       2.39829908
