15
Properties=species:S:1:pos:R:3 atomization_energy=-1434.79 smiles=O.N.C.N.C.C.C.H.H.H.H.H.H.H.H pbc="F F F"
O        0.93772963       2.79200902       0.58716979
N        2.11715917       2.12807906       0.93503965
C        2.85827878       1.70338928      -0.14845995
N        2.38780917       1.65278929      -1.35533944
C        4.30691808       1.29161949       0.09300996
C        5.16735807       2.52077891       0.07498997
C        5.91786743       2.94311886       1.10161960
H        0.25893989       2.09637918       0.68780971
H        2.65588893       2.59365899       1.66690937
H        1.43213948       2.02267915      -1.30394953
H        4.62717842       0.60313977      -0.69601975
H        4.37148813       0.76437970       1.05164956
H        5.17182787       3.08928880      -0.85406964
H        5.96036759       2.40610899       2.04351919
H        6.52313745       3.84036843       1.00885960
