17
Properties=species:S:1:pos:R:3 atomization_energy=-1686.67 smiles=C.C.C.C.N.C.N.H.H.H.H.H.H.H.H.H.H pbc="F F F"
C        0.95773962      -0.00203000       0.11088996
C        2.47128893      -0.01192999       0.01872999
C        3.12124883       1.16412950       0.77418970
C        4.44712846       0.60504979       1.29543953
N        4.10497838      -0.77231968       1.55707941
C        3.11578888      -1.19198952       0.72026973
N        2.84063881      -2.42583902       0.49053982
H        0.52702978      -0.82658970      -0.46690982
H        0.55015979       0.93470960      -0.28297988
H        0.61754978      -0.11779995       1.14598953
H        2.79583891      -0.01780000      -1.02796959
H        2.49588895       1.46925943       1.62330930
H        3.26527875       2.04063921       0.13511995
H        5.22712778       0.66359973       0.52849981
H        4.78663815       1.12043960       2.19814918
H        4.83256799      -1.45027945       1.75185933
H        2.08730914      -2.50306904      -0.19847992
