12
Properties=species:S:1:pos:R:3 atomization_energy=-1237.05 smiles=O.N.C.C.O.C.C.H.H.H.H.H pbc="F F F"
O        0.49587981       0.32134988       0.09425997
N        1.53281940       1.26223955       0.08399996
C        2.66395898       0.63404978       0.12713995
C        3.97448855       1.37028943       0.12999995
O        5.00254791       0.70766970       0.19355992
C        3.95243833       2.85356876       0.05415998
C        5.09338817       3.55448872       0.05924997
H       -0.30372987       0.88054967       0.06313998
H        2.75021893      -0.46519983       0.16527994
H        2.98932878       3.34648879      -0.00473000
H        6.06306742       3.06632868       0.11850995
H        5.08017813       4.63754823       0.00402000
