20
Properties=species:S:1:pos:R:3 atomization_energy=-1914.03 smiles=C.C.C.N.C.C.C.H.H.H.H.H.H.H.H.H.H.H.H.H pbc="F F F"
C        0.91569966       0.02981999      -0.02598999
C        2.42940900      -0.04041998       0.02738999
C        3.14251884       0.95285960       0.96766961
N        4.10683832      -0.10974996       1.32545950
C        3.12949880      -1.14541951       0.87967962
C        2.37091913      -1.72631937       2.07288917
C        3.80160858      -2.23849921       0.05265998
H        0.51266981      -0.82913969      -0.57016979
H        0.59400979       0.93759961      -0.54520981
H        0.46849982       0.04127998       0.97194959
H        2.83296895       0.01963999      -0.99537962
H        2.54589899       1.29978947       1.81898929
H        3.58527869       1.82582923       0.47890980
H        4.95582828      -0.07782997       0.75993968
H        1.93019924      -0.94829960       2.70629890
H        3.03336892      -2.32816916       2.70564890
H        1.55674936      -2.37542904       1.73263926
H        4.39779820      -1.82360922      -0.76774970
H        3.05036873      -2.90143878      -0.38939983
H        4.46776815      -2.85024884       0.67064974
