14
Properties=species:S:1:pos:R:3 atomization_energy=-1421.56 smiles=O.N.C.C.C.C.C.H.H.H.H.H.H.H pbc="F F F"
O        0.91866966       1.32022944       0.79207967
N        2.23703922       1.73670937       0.56845980
C        2.96111891       0.70464973       0.26944989
C        4.42435809       0.77166967      -0.03152998
C        5.03377795      -0.39893985      -0.27620990
C        5.11433823       2.04591924       0.03961998
C        6.17400738       2.40660911      -0.69700971
H        0.46785981       2.16052911       0.99787960
H        2.50648914      -0.30231988       0.22577991
H        4.49596818      -1.34165942      -0.29339987
H        6.10239779      -0.45530983      -0.45911981
H        4.69727806       2.76766890       0.74107968
H        6.62164757       1.75035935      -1.43561938
H        6.61004740       3.39388871      -0.58061977
