15
Properties=species:S:1:pos:R:3 atomization_energy=-1425.95 smiles=O.N.C.N.C.C.C.H.H.H.H.H.H.H.H pbc="F F F"
O        0.91114962       0.81038965      -0.44812981
N        2.11432915       0.86205965      -1.15304950
C        2.31225917      -0.23807990      -1.95336918
N        1.41757946      -1.07660954      -2.36157908
C        3.22893876       1.31516943      -0.31346989
C        4.25737838       2.27789922      -0.84199969
C        3.28713871       2.72454902       0.21232992
H        0.53682977       1.69305934      -0.62158972
H        3.36207857      -0.36639984      -2.26783903
H        0.53293977      -0.77396967      -1.93364924
H        3.57475850       0.53587980       0.36248984
H        4.12927839       2.66867884      -1.84451928
H        5.29009805       2.12459916      -0.55235981
H        3.66058847       2.87026881       1.21964956
H        2.50825899       3.41844862      -0.07803997
