13
Properties=species:S:1:pos:R:3 atomization_energy=-1228.05 smiles=C.C.O.S.C.O.O.H.H.H.H.H.H pbc="F F F"
C        2.92628886      -1.34444945       0.28682989
C        2.68045892      -0.05142998      -0.45358982
O        1.78291929      -0.01638999      -1.30436953
S        3.58661857       1.50040947      -0.19258992
C        2.84383887       2.63913892      -1.32898949
O        3.27539875       1.91009929       1.16411953
O        4.94954825       1.23122955      -0.61080976
H        3.82124854      -1.24360955       0.90598964
H        3.08279884      -2.15221908      -0.43197982
H        2.06934921      -1.56329938       0.92798964
H        2.97504885       2.26445906      -2.34576902
H        3.34905878       3.60145868      -1.22108949
H        1.78553925       2.74761891      -1.08451962
