12
Properties=species:S:1:pos:R:3 atomization_energy=-1255.81 smiles=O.N.C.C.C.C.O.H.H.H.H.H pbc="F F F"
O        1.12831953      -0.05436998      -0.35118985
N        2.47725909      -0.00308000      -0.02002999
C        3.18683880      -1.14344956       0.12070995
C        4.44484840      -0.82335967       0.44252982
C        4.60944811       0.68077970       0.53015977
C        3.19537870       1.14471954       0.19596992
O        2.78770879       2.29357909       0.13439996
H        0.89853962       0.89613963      -0.36815985
H        2.73850899      -2.11478915      -0.02014000
H        5.24237817      -1.52990939       0.61892978
H        4.88353790       0.99381959       1.54002939
H        5.31699808       1.04880957      -0.21611991
