15
Properties=species:S:1:pos:R:3 atomization_energy=-1531.96 smiles=C.C.N.N.C.C.C.H.H.H.H.H.H.H.H pbc="F F F"
C        0.98648961       0.08987997      -0.00669000
C        2.47141913       0.00066000      -0.00059000
N        3.26522879       1.02703956      -0.00748000
N        4.60982813       0.54403981      -0.00019000
C        4.57127797      -0.75235971       0.00971000
C        5.77302778      -1.62832930       0.02003999
C        3.18802880      -1.30196949       0.01095000
H        0.66603971       1.13498952       0.00196000
H        0.58945976      -0.41631983       0.87711966
H        0.59840976      -0.39888985      -0.90415967
H        6.68491762      -1.02522959       0.01206000
H        5.75947759      -2.27249908      -0.86245965
H        5.76029767      -2.25007920       0.91850962
H        2.98565888      -1.88011931      -0.89097965
H        2.98164883      -1.86614924       0.92064964
