15
Properties=species:S:1:pos:R:3 atomization_energy=-1418.7 smiles=O.N.C.C.N.C.C.H.H.H.H.H.H.H.H pbc="F F F"
O        2.07860913       0.65593977       2.55834902
N        2.94041891       0.52633979       1.46256937
C        2.98823871       1.65904937       0.83443966
C        3.81691853       1.83164925      -0.41310983
N        4.72437794       2.96437878      -0.19166993
C        6.10563772       2.56691894       0.06959997
C        5.69874752       3.12990883      -1.26750948
H        2.13082922      -0.22504991       2.97270873
H        2.40306915       2.53379895       1.17192956
H        3.12685865       2.07420923      -1.22883947
H        4.32131812       0.88851967      -0.65594974
H        6.34728729       1.51300938       0.13742995
H        6.66158758       3.20761879       0.74339968
H        5.97661772       4.15232834      -1.49357937
H        5.64963779       2.46412903      -2.11929919
