13
Properties=species:S:1:pos:R:3 atomization_energy=-1322.44 smiles=C.C.C.N.C.S.N.H.H.H.H.H.H pbc="F F F"
C        1.09059954      -0.10213996       0.26071990
C        2.38376910       0.01444000      -0.04723999
C        3.21347868       1.27506945      -0.12476995
N        4.50099816       0.74746971      -0.51435980
C        4.47006840      -0.62995974      -0.64497976
S        5.74000771      -1.58761931      -1.06871964
N        3.18753877      -1.04860960      -0.35835987
H        0.59546978      -1.06681959       0.28297988
H        0.49288981       0.77163971       0.49782979
H        3.31516868       1.77293934       0.84271965
H        2.86492897       1.96450923      -0.89759962
H        5.33771801       1.29191951      -0.67413973
H        2.90209888      -2.01747924      -0.38625986
