15
Properties=species:S:1:pos:R:3 atomization_energy=-1556.12 smiles=C.N.C.N.C.C.C.H.H.H.H.H.H.H.H pbc="F F F"
C        0.98235958       0.04808998      -0.00995999
N        2.42296901      -0.00924000      -0.00178000
C        3.25130869       1.07710953       0.00896000
N        4.51479815       0.72045974       0.01465000
C        4.50112836      -0.64877974       0.00713000
C        3.20923875      -1.13595961      -0.00330000
C        2.71287895      -2.53156910      -0.01449999
H        0.65580975       1.09122961      -0.00405000
H        0.60975975      -0.45905982       0.88352963
H        0.62061976      -0.44578982      -0.91522963
H        2.88841874       2.09669914       0.01217999
H        5.42265776      -1.21669956       0.00946000
H        1.62102936      -2.59134890      -0.00810000
H        3.08205876      -3.07049870       0.86418964
H        3.07113887      -3.05217870      -0.90861962
