14
Properties=species:S:1:pos:R:3 atomization_energy=-1419.66 smiles=C.C.C.C.C.O.H.H.H.H.H.H.H.H pbc="F F F"
C        0.94244961       0.11806995      -0.00300000
C        2.46342906       0.11318996      -0.09089996
C        2.93764882      -0.38538985      -1.42950943
C        3.71894865      -1.45950947      -1.60372940
C        3.02007888       1.51387941       0.10873996
O        2.51452892       2.53553903      -0.34586985
H        0.61254977       0.52268978       0.96041964
H        0.54133981      -0.89628964      -0.09904996
H        0.49037981       0.73574969      -0.78840970
H        2.85646881      -0.50653980       0.72503974
H        2.61664889       0.17865993      -2.30519920
H        4.06741837      -2.06164919      -0.77009967
H        4.02447840      -1.76439932      -2.60130892
H        3.97258850       1.56178943       0.66523975
