10
Properties=species:S:1:pos:R:3 atomization_energy=-1009.94 smiles=O.S.O.C.C.N.C.H.H.H pbc="F F F"
O        0.88270968      -0.04197999       0.10020996
S        2.31211913       0.04645998       0.31052988
O        2.93518884      -0.04198998       1.61389937
C        3.01834890       1.28088948      -0.64738971
C        3.73041862       0.68484974      -1.61292940
N        3.77786850      -0.69585971      -1.67720940
C        3.06166887      -1.18737955      -0.70626970
H        2.88566883       2.33181913      -0.46708982
H        4.28280833       1.24395954      -2.36223918
H        2.92746877      -2.26234906      -0.52352979
