13
Properties=species:S:1:pos:R:3 atomization_energy=-1330.92 smiles=C.C.C.S.C.N.N.H.H.H.H.H.H pbc="F F F"
C        1.02630957      -0.06232998       0.00605000
C        2.50269912       0.09036996      -0.01487999
C        3.21465883       1.27418945       0.00795000
S        4.89470810       0.94597960      -0.03263999
C        4.55510807      -0.73538974      -0.08630997
N        5.53744779      -1.64862935      -0.12959995
N        3.28459874      -1.05206956      -0.06149998
H        0.52369980       0.90951962       0.02311999
H        0.71715975      -0.62316976       0.89320963
H        0.68993970      -0.60542974      -0.88226968
H        2.83930877       2.28653905       0.04482998
H        5.26221797      -2.59236907       0.11461995
H        6.45146730      -1.37618944       0.20617992
