15
Properties=species:S:1:pos:R:3 atomization_energy=-1519.72 smiles=C.C.C.C.N.N.C.H.H.H.H.H.H.H.H pbc="F F F"
C        0.99044964      -0.02740999      -0.18071993
C        2.44861899       0.04749998       0.13618995
C        3.18718879       1.16239951       0.15032994
C        4.63586821       1.34091946       0.45419983
N        4.82999825       2.77910884       0.21453992
N        3.65608865       3.44614853       0.00059000
C        2.73121889       2.54166891      -0.09343996
H        0.74381968      -1.02830961      -0.54813976
H        0.70302971       0.68406972      -0.95999963
H        0.39610986       0.15982993       0.71811974
H        2.93262894      -0.89866963       0.37227985
H        5.27426780       0.75770970      -0.21501992
H        4.85187789       1.09112956       1.49759939
H        5.38949790       3.22309880       0.94298960
H        1.67273936       2.75542881      -0.29398989
