18
Properties=species:S:1:pos:R:3 atomization_energy=-1712.86 smiles=O.C.C.N.C.C.C.H.H.H.H.H.H.H.H.H.H.H pbc="F F F"
O        0.82949964       2.57766901       0.56417976
C        1.90928931       1.77503924       1.04500959
C        3.18166879       2.61948888       1.15302957
N        3.59231848       3.08562874      -0.17852993
C        4.76580821       3.95911855      -0.12682995
C        6.12867759       3.35801856      -0.31536988
C        5.53005801       4.21122826      -1.39465946
H        0.07457997       1.97793918       0.43469982
H        2.05331924       0.93131966       0.36085985
H        1.63228939       1.38602948       2.02997922
H        3.98034844       2.01996924       1.60364941
H        2.98449891       3.48410874       1.79683927
H        2.78918897       3.56893847      -0.59047974
H        4.68634808       4.80609794       0.55285980
H        6.20108757       2.29162907      -0.49745981
H        6.94795731       3.76752847       0.26377989
H        5.94271752       5.20078793      -1.54830939
H        5.19988811       3.72058855      -2.30281921
