15
Properties=species:S:1:pos:R:3 atomization_energy=-1553.8 smiles=C.C.C.C.N.C.N.H.H.H.H.H.H.H.H pbc="F F F"
C        0.96858962      -0.02061999      -0.00771000
C        2.44890891       0.06130998      -0.00051000
C        3.29503870       1.15453952       0.00264000
C        4.61284803       0.66052974       0.00850000
N        5.73363786       1.38648948       0.01228999
C        4.56040804      -0.70703975       0.00914999
N        3.23658868      -1.06703962       0.00344000
H        0.52011979       0.97789963       0.00114000
H        0.60883974      -0.56168976       0.87320966
H        0.61691977      -0.54250981      -0.90333965
H        2.98544894       2.19078918       0.00036000
H        5.72685772       2.40027913       0.02702999
H        6.65597724       0.96623959       0.03171999
H        5.33635794      -1.45885947       0.01255999
H        2.89366874      -2.01841917       0.00201000
