17
Properties=species:S:1:pos:R:3 atomization_energy=-1620.76 smiles=C.C.C.C.N.N.C.H.H.H.H.H.H.H.H.H.H pbc="F F F"
C        1.18774959      -0.15987994       0.05476998
C        2.67445899      -0.23314990       0.13895994
C        3.52101850      -1.08364958      -0.77180971
C        2.96233893      -1.94239921      -1.85433926
N        3.58608867       0.38540985      -0.83707967
N        2.87657885       0.81296968      -1.89562923
C        3.39299874       1.87835930      -2.41073901
H        0.84006967       0.80442971       0.43976982
H        0.74661968      -0.94492965       0.67809975
H        0.78731970      -0.28113989      -0.95537963
H        3.00231880      -0.14066995       1.16904958
H        4.40019838      -1.54520937      -0.33543987
H        2.05053917      -1.55137937      -2.31500908
H        2.72594895      -2.93314875      -1.45118948
H        3.70715847      -2.07557914      -2.64640884
H        2.91549893       2.34229895      -3.28768879
H        4.30328854       2.36969910      -2.02374916
