17
Properties=species:S:1:pos:R:3 atomization_energy=-1754.39 smiles=C.C.C.C.C.C.C.H.H.H.H.H.H.H.H.H.H pbc="F F F"
C        0.83000967       0.06160998      -0.50584979
C        2.12901924      -0.06050998       0.23252991
C        2.58749908      -1.44936942       0.87182966
C        3.93984852      -0.61849974       0.92743962
C        3.51244857      -0.21627992      -0.54832976
C        3.62072846       0.57962975       1.75977926
C        2.41721914       0.95534961       1.30226951
H       -0.02355999      -0.02223999       0.17497993
H        0.73001968      -0.72733974      -1.25863954
H        0.75615969       1.02331957      -1.02425957
H        2.57310888      -2.32751916       0.21569992
H        2.13877916      -1.72012931       1.83346932
H        4.88392800      -1.13228958       1.09636959
H        3.95450846       0.69998974      -0.95390962
H        3.56735863      -1.00224960      -1.31073951
H        4.21953829       1.02595959       2.53704898
H        1.80159925       1.78222929       1.61891937
