13
Properties=species:S:1:pos:R:3 atomization_energy=-1321.55 smiles=O.N.C.C.C.C.N.H.H.H.H.H.H pbc="F F F"
O        1.06556954       0.21892992       0.46871982
N        2.35538915       0.02408999      -0.04953998
C        2.96286882       1.16159950      -0.15156995
C        4.38688841       1.26904946      -0.70017975
C        4.55570812       2.77779899      -0.64656976
C        3.45825867       3.36432861      -0.14920994
N        2.52987899       2.42376915       0.15893994
H        0.71652974      -0.69164975       0.49162979
H        4.43572814       0.88612965      -1.72184933
H        5.09263824       0.75334973      -0.04527998
H        5.44523787       3.29399859      -0.97521962
H        3.26674883       4.41639805       0.00794000
H        1.59599936       2.61312887       0.48880980
