12
Properties=species:S:1:pos:R:3 atomization_energy=-1312.5 smiles=C.C.C.C.C.C.H.H.H.H.H.H pbc="F F F"
C        2.80376892      -1.13685955       0.68001974
C        2.28747898       0.05183998       0.34119987
C        3.03603883       1.25053945       0.00000000
C        2.39199913       2.38314912      -0.32244989
C        4.44203844       1.25053945       0.00000000
C        5.63219767       1.25053945       0.00000000
H        2.15254913      -1.97149919       0.91766961
H        3.87319850      -1.31648950       0.73181969
H        1.20101957       0.13764995       0.31687986
H        1.30905949       2.44525894      -0.34010986
H        2.93544874       3.28775869      -0.57991975
H        6.69700731       1.25020953       0.00009000
