15
Properties=species:S:1:pos:R:3 atomization_energy=-1643.64 smiles=C.C.C.C.C.C.C.H.H.H.H.H.H.H.H pbc="F F F"
C        0.98097959      -1.36739948       0.09570996
C       -0.50528981      -1.51192940       0.01595999
C       -1.48680944      -0.60542974      -0.03216999
C       -1.39330949       0.82774966       0.00156000
C       -0.30399987       1.60023941       0.00156000
C        1.07919959       1.21357948      -0.03261999
C        1.60992931      -0.01271000       0.01554999
H        1.40563940      -1.96695924      -0.71983970
H        1.31472950      -1.83804926       1.02884960
H       -0.82300968      -2.55499907      -0.00539000
H       -2.50929910      -0.97912962      -0.08899996
H       -2.35915897       1.33202945       0.02731999
H       -0.46053981       2.67875897       0.02711999
H        1.77056932       2.05505919      -0.08982997
H        2.69953895      -0.05867998      -0.00637000
