12
Properties=species:S:1:pos:R:3 atomization_energy=-1301.61 smiles=C.C.C.C.S.N.C.H.H.H.H.H pbc="F F F"
C        2.67705901      -1.14653961       0.38081985
C        2.21298903       0.09203996       0.16259994
C        2.99786893       1.28343954       0.06789998
C        2.43803899       2.52579904      -0.15829993
S        3.68459854       3.69961856      -0.20780991
N        4.93006828       2.63688889       0.05649997
C        4.41708843       1.41456940       0.18066992
H        1.99033925      -1.98612923       0.43508983
H        3.73055841      -1.36729943       0.51060980
H        1.13511960       0.20072992       0.04647998
H        1.40262947       2.80304902      -0.29292988
H        5.12158821       0.61232974       0.35834987
