20
Properties=species:S:1:pos:R:3 atomization_energy=-1905.93 smiles=C.C.C.N.C.C.C.H.H.H.H.H.H.H.H.H.H.H.H.H pbc="F F F"
C        0.95079963      -0.00319000       0.02870999
C        2.46546891      -0.00936000      -0.00723000
C        3.18997882       1.00975961       0.90389964
N        4.16613843      -0.04311998       1.28376946
C        5.35521769       0.05583997       0.43821981
C        3.18677875      -1.07951955       0.85316964
C        3.72885846      -2.31433914       0.15594994
H        0.55105980      -0.86553968      -0.51327978
H        0.55942975       0.90283966      -0.44419982
H        0.56917977      -0.04122998       1.05399958
H        2.82589888       0.02769999      -1.04521959
H        2.59345889       1.35755944       1.75721935
H        3.59166847       1.89376930       0.39626984
H        6.01534754      -0.80079968       0.61073973
H        5.92646789       0.95025964       0.71307974
H        5.14236819       0.11807996      -0.63525977
H        2.57387900      -1.40691948       1.70758933
H        4.27224827      -2.07886916      -0.76465972
H        2.90369891      -2.98010885      -0.12152995
H        4.39530820      -2.87692884       0.81858966
