12
Properties=species:S:1:pos:R:3 atomization_energy=-1242.88 smiles=O.C.C.C.O.N.C.H.H.H.H.H pbc="F F F"
O        0.92853966      -0.16355994      -0.13159994
C        2.13691923       0.00686000      -0.02961999
C        2.78888895       1.33284953       0.20110992
C        4.25739857       1.18620949      -0.11354996
O        4.75645833       0.09320996       0.65677972
N        4.30325826      -1.15366948       0.16950994
C        3.04003879      -1.18681950      -0.11771995
H        2.32761908       2.09109915      -0.43784983
H        2.64116893       1.59402942       1.25423951
H        4.80343786       2.08789921       0.17943993
H        4.44488826       1.00760961      -1.17904959
H        2.56097906      -2.11308919      -0.47029982
