15
Properties=species:S:1:pos:R:3 atomization_energy=-1502.63 smiles=C.C.C.N.N.C.C.H.H.H.H.H.H.H.H pbc="F F F"
C        1.00098958      -0.08658996       0.10191996
C        2.47277894       0.14176995      -0.17081993
C        3.02783883       1.26582946       0.63831973
N        4.04358846       0.94849963       1.37569941
N        4.42076842      -0.35994984       1.17054956
C        3.47276873      -1.25956951       1.81536934
C        3.35334867      -0.94559965       0.33820986
H        0.65285975      -1.00289960      -0.38609985
H        0.40553983       0.75202972      -0.27479991
H        0.79034969      -0.17722993       1.17334955
H        2.64853902       0.34507987      -1.23178948
H        2.58995906       2.27256898       0.59793979
H        3.87350836      -2.22549911       2.09759921
H        2.78033895      -0.83566965       2.53171898
H        3.65956854      -1.67841933      -0.39348984
