13
Properties=species:S:1:pos:R:3 atomization_energy=-1219.46 smiles=O.C.C.S.O.O.C.H.H.H.H.H.H pbc="F F F"
O        0.93316962      -0.01814999       0.03862998
C        2.37498897       0.00031000       0.04152999
C        3.01737894       1.09750963       0.92798964
S        4.35517845       0.00228000       1.27753953
O        4.66918804      -0.03943999       2.68935890
O        5.36740781       0.04437998       0.24365991
C        3.05819882      -1.12144956       0.86261964
H        0.67801970      -0.71871972      -0.58885978
H        2.74278904       0.04379998      -0.99297964
H        2.44471895       1.36673951       1.82107922
H        3.31871873       2.00489926       0.39858983
H        3.39319859      -1.98420923       0.28144987
H        2.49672896      -1.46341947       1.73770935
