18
Properties=species:S:1:pos:R:3 atomization_energy=-1793.64 smiles=C.C.N.C.C.C.C.H.H.H.H.H.H.H.H.H.H.H pbc="F F F"
C        0.97439960       0.05841998      -0.02555999
C        2.49596894      -0.00021000       0.06896997
N        2.90133886      -1.26474949       0.72968970
C        3.43963864      -0.89338966       2.05640915
C        3.61944863       0.57386979       2.01979917
C        3.07793869       1.08591955       0.91408966
C        3.03595885       2.51606890       0.51321979
H        0.59009979      -0.78112970      -0.61410974
H        0.65110977       0.98550963      -0.51597979
H        0.50171979       0.02239999       0.96200964
H        2.92781875       0.02996999      -0.93951961
H        3.67993849      -1.64787930       0.19189992
H        4.38600828      -1.40868946       2.24312924
H        2.72614905      -1.17758947       2.83948893
H        4.09497849       1.14234952       2.80689883
H        3.05606889       2.61516897      -0.57975976
H        3.90003846       3.06448868       0.90666967
H        2.12088913       2.99164872       0.88214963
