15
Properties=species:S:1:pos:R:3 atomization_energy=-1564.9 smiles=C.C.C.C.N.C.N.H.H.H.H.H.H.H.H pbc="F F F"
C        0.90013966      -0.13724994      -0.00653000
C        2.37202913       0.00916000      -0.00377000
C        3.20168875       1.11492957      -0.00726000
C        2.84467888       2.55163902      -0.01517999
N        4.52056846       0.72378969      -0.00275000
C        4.50030828      -0.58776977       0.00338000
N        3.22316870      -1.06747956       0.00298000
H        0.40368983       0.83795968       0.00232000
H        0.56738979      -0.69331975       0.87564964
H        0.56952975      -0.67645973      -0.89988966
H        3.74142859       3.17916869      -0.00508000
H        2.24441916       2.80222894       0.86504965
H        2.26731923       2.79767890      -0.91184965
H        5.36632783      -1.23533952       0.00817000
H        2.95875885      -2.04238925       0.00692000
