13
Properties=species:S:1:pos:R:3 atomization_energy=-1322.88 smiles=C.C.N.S.N.C.C.H.H.H.H.H.H pbc="F F F"
C        1.08246955       0.13799995       0.00208000
C        2.56619904       0.04104998      -0.00091000
N        3.26272869       1.18445957      -0.00719000
S        4.86757794       0.73104970      -0.00885000
N        4.69823793      -0.92905965      -0.00091000
C        3.37787855      -1.15416960       0.00361000
C        2.92123896      -2.56907890       0.01107000
H        0.60064977      -0.84236967      -0.02240999
H        0.73578968       0.69934970      -0.87200964
H        0.73752970       0.65648973       0.90288962
H        1.83263927      -2.65593889       0.04352998
H        3.32177875      -3.09385877       0.88508967
H        3.27020880      -3.08558887      -0.88954963
