15
Properties=species:S:1:pos:R:3 atomization_energy=-1498.52 smiles=C.C.C.C.N.C.N.H.H.H.H.H.H.H.H pbc="F F F"
C        2.25624920      -0.96852962      -0.79843968
C        2.03955923       0.24478991      -0.27380988
C        3.05492886       1.27182952      -0.04542998
C        3.49373871       2.13257913      -1.18592953
N        2.61850908       2.67544889      -0.13833995
C        3.18519865       3.55656869       0.74559969
N        2.59117908       4.57749843       1.26104956
H        1.43876949      -1.67117932      -0.92758963
H        3.24708869      -1.28576944      -1.10818955
H        1.02250959       0.49795981       0.02145999
H        3.75986845       1.06410955       0.75298971
H        2.99430879       2.05161915      -2.14229918
H        4.50330800       2.52086899      -1.20042949
H        4.23547856       3.34605857       1.01334959
H        1.63614930       4.59149828       0.88392964
