16
Properties=species:S:1:pos:R:3 atomization_energy=-1610.97 smiles=C.C.N.C.C.C.C.H.H.H.H.H.H.H.H.H pbc="F F F"
C        0.99342961       0.03472999       0.05041998
C        2.50879898      -0.02844999       0.01436999
N        3.14679888       0.99863962       0.88788966
C        4.19251840      -0.00124000       1.22467954
C        3.18897883      -1.12394953       0.87938964
C        3.71929864      -2.26959904       0.16937993
C        4.15497833      -3.22265874      -0.41519982
H        0.56474978      -0.81070967      -0.49771981
H        0.63090977       0.95440961      -0.42085983
H        0.60413976       0.00067000       1.07382960
H        2.88027879       0.02252999      -1.01925963
H        2.57717898       1.26773949       1.69115928
H        5.07307803       0.06396997       0.57339976
H        4.52921838       0.02753999       2.26549916
H        2.58727905      -1.41751941       1.75165936
H        4.54214834      -4.06933836      -0.93491961
