14
Properties=species:S:1:pos:R:3 atomization_energy=-1409.99 smiles=O.C.C.N.C.C.C.H.H.H.H.H.H.H pbc="F F F"
O        2.54735898      -0.64497976      -1.00523959
C        2.39008898       0.06784997       0.21481991
C        3.38276872       1.18524950       0.27099989
N        3.59555867       2.06039914      -0.88921964
C        2.90339889       2.61990901       0.26315990
C        3.59886849       3.56928871       1.07952952
C        4.18485838       4.36253845       1.76419934
H        2.02074920      -1.45842937      -0.92962960
H        2.55170892      -0.61911978       1.05166956
H        1.36009941       0.43580983       0.26323990
H        4.28804824       0.91554965       0.80024965
H        2.95621889       1.76767924      -1.63111933
H        1.84594924       2.81245896       0.11462996
H        4.71619836       5.06538798       2.36267899
