15
Properties=species:S:1:pos:R:3 atomization_energy=-1476.22 smiles=O.C.C.C.N.C.N.H.H.H.H.H.H.H.H pbc="F F F"
O        3.01945890      -1.00977960      -0.50479982
C        2.33352918       0.10526996       0.05547998
C        3.23571865       1.33527948       0.06417997
C        3.53148873       1.87903921      -1.34988946
N        3.40410863       3.36829879      -1.26440947
C        2.86701878       3.56033852      -0.10102996
N        2.58737897       2.48319897       0.68053974
H        2.38913896      -1.75144930      -0.52272978
H        2.03863923      -0.15492994       1.07780962
H        1.42068945       0.28447990      -0.52338978
H        4.18262828       1.11935950       0.57398977
H        2.82195897       1.51002935      -2.09902917
H        4.54374812       1.61011932      -1.66896940
H        2.63634890       4.54863830       0.32714987
H        2.70638899       2.60002909       1.68008939
