13
Properties=species:S:1:pos:R:3 atomization_energy=-1360.32 smiles=O.C.C.C.N.C.N.H.H.H.H.H.H pbc="F F F"
O        3.22651865      -0.74445972      -0.77603967
C        2.21608917       0.04842998      -0.16521993
C        2.76083879       1.41033945      -0.01604999
C        2.21673917       2.57761905       0.47390980
N        3.12232880       3.60609854       0.41087985
C        4.20746827       3.08070878      -0.11054996
N        4.03719842       1.75645933      -0.38493985
H        2.84500893      -1.63325935      -0.87905965
H        1.96693918      -0.38308985       0.80875966
H        1.32912954       0.04852998      -0.80556968
H        1.22136958       2.73470888       0.86927967
H        5.13332818       3.60265851      -0.31004989
H        4.71165791       1.12031962      -0.78986969
