15
Properties=species:S:1:pos:R:3 atomization_energy=-1452.15 smiles=O.C.N.N.C.C.C.H.H.H.H.H.H.H.H pbc="F F F"
O        1.80619925      -0.75844972       2.97267871
C        2.43449903      -0.13024995       2.13002907
N        3.79477848      -0.20788992       1.99218921
N        4.44422817       0.53080977       1.00522963
C        5.69694789       1.15046954       1.52109937
C        6.35789732       0.76264971       0.18510992
C        5.28695805      -0.34256986       0.14063995
H        1.95382918       0.55137975       1.40852948
H        4.29565855      -0.82054970       2.62729904
H        6.14547780       0.65808976       2.39383913
H        5.63026784       2.22494902       1.71432935
H        6.25581772       1.51867939      -0.60215978
H        7.39669716       0.42881985       0.23715990
H        4.86776820      -0.54751978      -0.84855967
H        5.60943790      -1.28853953       0.59504978
