14
Properties=species:S:1:pos:R:3 atomization_energy=-1446.98 smiles=C.C.C.S.C.C.N.H.H.H.H.H.H.H pbc="F F F"
C        0.94266964       0.01727999      -0.00779000
C        2.43480915       0.02927999      -0.00111000
C        3.20136880       1.18164948       0.00194000
S        4.88190783       0.86585963       0.01031999
C        4.61265827      -0.82196970       0.01024999
C        3.27321861      -1.12821960       0.00347000
N        2.81537893      -2.39298903       0.00186000
H        0.53390979       1.03293958       0.00068000
H        0.56093976      -0.50695980       0.87418965
H        0.56943980      -0.48910979      -0.90371966
H        2.85311886       2.20538906      -0.00022000
H        5.45330793      -1.50036935       0.01524000
H        1.82769926      -2.62191908      -0.02186999
H        3.43126856      -3.19955882      -0.01276000
