17
Properties=species:S:1:pos:R:3 atomization_energy=-1776.14 smiles=C.C.C.C.C.C.C.H.H.H.H.H.H.H.H.H.H pbc="F F F"
C        0.96074962      -0.01463999      -0.44594982
C        2.24631921      -0.02217999       0.30970987
C        3.46523866       0.74611968      -0.15196994
C        3.69956860       1.19830953      -1.58048932
C        3.84232854      -0.07418997      -2.37569904
C        3.69092853      -1.13368952      -1.56467937
C        3.46359875      -0.77882970      -0.15543993
H        0.38711983       0.88199962      -0.19090992
H        0.36166986      -0.88719966      -0.16714993
H        1.08822952      -0.03049999      -1.53121937
H        2.05147924      -0.02723999       1.37860942
H        4.06718850       1.26785947       0.57890979
H        4.61916842       1.78824929      -1.64848931
H        2.86219900       1.80074927      -1.94530922
H        4.02042849      -0.11396996      -3.43961871
H        3.73766860      -2.16317909      -1.89677923
H        4.07582832      -1.28992950       0.57782975
