17
Properties=species:S:1:pos:R:3 atomization_energy=-1579.28 smiles=C.C.N.C.C.N.S.H.H.H.H.H.H.H.H.H.H pbc="F F F"
C        2.50432893      -0.30597988      -1.70405934
C        2.78245879       0.06947997      -0.25543990
N        3.33548866       1.42669947      -0.12027995
C        2.33531897       2.49285896      -0.06972997
C        4.69978825       1.66608929      -0.08906997
N        5.07493822       2.93284872       0.23590990
S        5.93004746       0.58541975      -0.41731985
H        2.10687919      -1.32415950      -1.76015926
H        3.41232858      -0.26049990      -2.31268915
H        1.76992928       0.36830986      -2.15546911
H        3.46615865      -0.66074971       0.18807993
H        1.85641923       0.01888999       0.32934989
H        1.87556927       2.48540913       0.92275964
H        1.56636937       2.30907904      -0.82537970
H        2.76171892       3.47899853      -0.26470990
H        4.50554819       3.46239867       0.87876966
H        6.07379756       3.07672876       0.33352988
