18
Properties=species:S:1:pos:R:3 atomization_energy=-1799.95 smiles=C.C.C.C.N.C.C.H.H.H.H.H.H.H.H.H.H.H pbc="F F F"
C        1.01249961       0.03412999       0.01760999
C        2.49749908      -0.00101000      -0.01940999
C        3.28224879      -1.08605959      -0.07604997
C        4.73320802      -0.73765971      -0.05834998
N        5.30345799      -1.08710954       1.23385947
C        4.70960798       0.77422970      -0.32098987
C        3.30738880       1.25545953       0.05613998
H        0.58491975      -0.97249961      -0.02968999
H        0.62386973       0.60526976      -0.83124969
H        0.66503972       0.50573981       0.94203964
H        2.92726892      -2.10741918      -0.10201997
H        5.27445806      -1.25736955      -0.85538965
H        4.78535833      -0.60256975       1.96591926
H        6.25576776      -0.73116969       1.28590948
H        4.88114832       0.95754962      -1.39062948
H        5.48983792       1.32358948       0.21750992
H        2.95635893       2.01898919      -0.64480975
H        3.28470876       1.66432940       1.07195957
