14
Properties=species:S:1:pos:R:3 atomization_energy=-1380.61 smiles=O.N.C.O.C.C.C.H.H.H.H.H.H.H pbc="F F F"
O        1.31024948       2.05724917      -2.13971910
N        2.62174901       1.66630932      -1.77201934
C        2.89260895       1.74820936      -0.42261984
O        2.02667923       2.04445925       0.39996984
C        4.33849834       1.46614944      -0.05829998
C        5.10224803       2.75488882       0.01401999
C        6.17260745       3.04248892      -0.73831968
H        0.89627968       2.25427900      -1.26968950
H        3.34672876       1.85157926      -2.45701909
H        4.77448789       0.77301971      -0.78641970
H        4.35555846       0.96385960       0.91502966
H        4.75152827       3.49012861       0.73890969
H        6.57286740       2.34337918      -1.46550941
H        6.68515733       3.99531850      -0.62934974
