10
Properties=species:S:1:pos:R:3 atomization_energy=-1162.03 smiles=O.C.C.C.C.C.N.H.H.H pbc="F F F"
O        2.23220910       0.85709964       0.83971969
C        2.28283911       0.05596998      -0.08989996
C        2.96858892      -1.28344950       0.00000000
C        2.03078921      -2.38147919       0.00000000
C        1.25783952      -3.28647861       0.00000000
C        1.69614938       0.37785984      -1.37828947
N        1.24984945       0.61554974      -2.42538912
H        3.56513862      -1.29347954       0.91968965
H        3.67921859      -1.36799940      -0.83013968
H        0.56582976      -4.09835847       0.00074000
