13
Properties=species:S:1:pos:R:3 atomization_energy=-1318.86 smiles=C.C.C.N.C.N.S.H.H.H.H.H.H pbc="F F F"
C        0.87716968      -0.01857000      -0.00382000
C        2.35987913       0.05430998      -0.00435000
C        3.22708867       1.12585955      -0.00380000
N        2.85487887       2.42158901      -0.00174000
C        4.57908812       0.67018974      -0.00647000
N        4.77547804      -0.64608977      -0.00783000
S        3.29240865      -1.38856944      -0.00733000
H        0.42391982       0.97717960       0.00858000
H        0.51570979      -0.55725977       0.87854968
H        0.51464978      -0.53606981      -0.89832962
H        3.52492862       3.18471872       0.01613999
H        1.88560928       2.72133886       0.01890999
H        5.46025763       1.29693951      -0.00734000
