18
Properties=species:S:1:pos:R:3 atomization_energy=-1771.69 smiles=C.C.N.C.C.C.C.H.H.H.H.H.H.H.H.H.H.H pbc="F F F"
C        0.99172959       0.08481997      -0.12206995
C        2.46902905       0.09219996       0.06142998
N        3.31638870      -0.72426968      -0.79444969
C        3.37197879       0.73026968      -0.97038962
C        4.57906844       1.44355949      -0.51973981
C        4.33677846       2.75286891       0.18506993
C        5.83490748       1.01430958      -0.73723970
H        0.55729976       0.99227961       0.30890988
H        0.55147980      -0.77765970       0.38823983
H        0.70317972       0.04023998      -1.17764953
H        2.75522897       0.12757995       1.10628962
H        2.78752888      -1.14951952      -1.55585939
H        2.93103875       1.11204958      -1.88586931
H        3.74769852       3.42206856      -0.45104982
H        5.27029812       3.26853862       0.43464983
H        3.78735843       2.58931889       1.11791957
H        6.01753778       0.07465997      -1.25056948
H        6.70153716       1.57219935      -0.40000983
