13
Properties=species:S:1:pos:R:3 atomization_energy=-1375.03 smiles=O.C.N.C.C.C.N.H.H.H.H.H.H pbc="F F F"
O        0.93021962      -0.02809999       0.00778000
C        2.15720919      -0.02168999       0.00373000
N        2.86160879       1.14100952       0.00293000
C        4.29896813       1.24800945      -0.03466999
C        4.95429814      -0.09014996      -0.00994000
C        4.25005826      -1.22466957       0.00635000
N        2.88792896      -1.17345957       0.00509000
H        2.29620914       1.97798927      -0.00226000
H        4.60910797       1.84436927       0.82875968
H        4.56833830       1.79066927      -0.94591961
H        6.03859785      -0.12365995      -0.01008000
H        4.70817827      -2.20681902       0.01930999
H        2.34330904      -2.02700916       0.01282000
