10
Properties=species:S:1:pos:R:3 atomization_energy=-1130.71 smiles=O.C.N.C.O.C.C.H.H.H pbc="F F F"
O        0.86160968       1.23016951      -0.00530000
C        2.02063918       0.83423969      -0.00343000
N        3.08536884       1.68511936      -0.00191000
C        4.38641807       1.26371947      -0.00073000
O        4.75696803       0.09874996      -0.00011000
C        5.36888799       2.32497919      -0.00010000
C        6.18467746       3.20667885       0.00041000
H        2.28697911      -0.23573991      -0.00293000
H        2.87131875       2.67055896      -0.00248000
H        6.91946709       3.97899847       0.00086000
