15
Properties=species:S:1:pos:R:3 atomization_energy=-1349.59 smiles=C.O.C.S.C.O.O.H.H.H.H.H.H.H.H pbc="F F F"
C        3.57323870       2.10246920       2.19455926
O        4.19822841       1.03384961       1.49386942
C        4.14685831       1.21055958       0.06729997
S        5.31163806       2.37905908      -0.65792972
C        6.84675733       1.94223923       0.12029995
O        5.43460766       2.07361916      -2.07130919
O        4.96045805       3.72042857      -0.22878992
H        3.55392855       1.84521925       3.25729877
H        2.54313899       2.24341917       1.85359930
H        4.14274833       3.02749894       2.08283922
H        3.13854866       1.49071944      -0.25687990
H        4.38585839       0.24015990      -0.37930987
H        6.76576758       2.11835925       1.19420953
H        7.63274699       2.57173897      -0.30182988
H        7.05930705       0.89153963      -0.08615996
