15
Properties=species:S:1:pos:R:3 atomization_energy=-1362.13 smiles=C.S.O.O.C.C.O.H.H.H.H.H.H.H.H pbc="F F F"
C        1.45232939      -0.39666985       1.04472957
S        3.21127885      -0.26536991       0.83916967
O        3.81325847      -0.30132989       2.15820917
O        3.60720855      -1.21194955      -0.18506993
C        3.41277873       1.37232940       0.18501992
C        4.87498790       1.67168941      -0.05963997
O        4.99109813       2.99097878      -0.58590977
H        0.97277964      -0.26848989       0.07238997
H        1.12016960       0.37177986       1.74534931
H        1.22895958      -1.38852945       1.44377940
H        2.98483880       2.08247914       0.89951968
H        2.84063881       1.44280944      -0.74539972
H        5.30895780       0.97175959      -0.78093969
H        5.45273766       1.61706940       0.86866966
H        5.93988788       3.15449877      -0.73428970
