12
Properties=species:S:1:pos:R:3 atomization_energy=-1244.2 smiles=C.C.C.C.O.C.H.H.H.H.H.H pbc="F F F"
C        0.91524963      -0.02247999       0.03762999
C        2.11623917      -0.00679000       0.02124999
C        3.56230847       0.01268999      -0.00763000
C        4.25569836       1.01622963       0.92343960
O        5.14798812      -0.01561000       1.42264943
C        4.28213814      -1.03371959       0.85355968
H       -0.15046994      -0.03621999       0.05083998
H        3.96274834       0.05265998      -1.02855961
H        3.65352849       1.43685946       1.73584930
H        4.80325820       1.81738926       0.41887982
H        4.84975831      -1.78424933       0.29609988
H        3.69173851      -1.52408937       1.63489938
