14
Properties=species:S:1:pos:R:3 atomization_energy=-1454.41 smiles=O.C.C.C.C.C.N.H.H.H.H.H.H.H pbc="F F F"
O        0.96297960       0.37733985      -0.15938994
C        2.31025920       0.01017000       0.17930993
C        2.91195897      -0.81714967      -0.96746964
C        2.23795923      -2.15705905      -1.12404958
C        2.86297895      -3.33593857      -1.01314961
C        3.13142888       1.21245951       0.42655984
N        3.76250860       2.16364919       0.64365976
H        0.64154976       0.97211960       0.54135980
H        2.26400915      -0.59268979       1.09406960
H        3.98830848      -0.95804961      -0.80349968
H        2.80002887      -0.27608989      -1.91607929
H        1.17339951      -2.14065928      -1.35597948
H        3.92417849      -3.40774876      -0.79558967
H        2.31763913      -4.26578808      -1.14831956
