12
Properties=species:S:1:pos:R:3 atomization_energy=-1356.0 smiles=O.C.N.C.C.C.C.H.H.H.H.H pbc="F F F"
O        2.76071894      -1.07639960       0.01093000
C        2.17573913      -0.00031000      -0.00219000
N        2.91157896       1.18838951       0.00278000
C        2.37213914       2.46010914      -0.01057999
C        3.39941855       3.37851871      -0.00028000
C        4.61174837       2.65308906       0.02008999
C        4.28666849       1.31496946       0.02157999
H        1.07762958       0.08839997      -0.01805999
H        1.29998944       2.60482894      -0.02633999
H        3.28685863       4.45549829      -0.00675000
H        5.61544792       3.05919881       0.03238999
H        4.91133824       0.43032983       0.03438999
