13
Properties=species:S:1:pos:R:3 atomization_energy=-1304.18 smiles=C.C.C.N.S.C.N.H.H.H.H.H.H pbc="F F F"
C        0.96259965       0.04810998       0.00954999
C        2.44039904       0.00295000      -0.05209998
C        3.30529874       1.02536957      -0.10229996
N        4.65418796       0.77606970      -0.17292993
S        4.93012783      -0.86534967       0.00841999
C        3.21184862      -1.25553952      -0.01242000
N        2.78898887      -2.46638891       0.02097999
H        0.59324977       1.07880961       0.02384999
H        0.59896974      -0.45011982       0.91371962
H        0.52724979      -0.45217982      -0.86112968
H        3.01582886       2.07057920      -0.09532996
H        5.25214794       1.44541943       0.30789986
H        1.76751926      -2.48914894       0.00295000
