13
Properties=species:S:1:pos:R:3 atomization_energy=-1324.15 smiles=O.C.C.N.N.C.C.H.H.H.H.H.H pbc="F F F"
O        2.53970905      -0.73353971      -1.09146957
C        2.39885901      -0.09983996       0.16847994
C        2.89338891       1.30812952       0.07273997
N        2.12302915       2.34741901      -0.03940998
N        2.95779873       3.50239872      -0.13863994
C        4.18970844       3.11173871      -0.10097996
C        4.34089852       1.64163940       0.03601999
H        1.90690920      -0.29799987      -1.69295929
H        2.99347888      -0.64501976       0.90627963
H        1.34768951      -0.12019995       0.46996980
H        5.05857807       3.77980843      -0.16112994
H        4.84010815       1.21430948      -0.83399966
H        4.84651787       1.37953952       0.96568964
