20
Properties=species:S:1:pos:R:3 atomization_energy=-1909.97 smiles=C.C.C.C.C.N.C.H.H.H.H.H.H.H.H.H.H.H.H.H pbc="F F F"
C        2.99584877      -1.05867963      -0.66617975
C        2.37582899       0.14132995       0.03157999
C        3.33470871       1.29115948       0.09598997
C        3.50397857       2.29853917      -1.03335958
C        2.73878883       2.21885901      -2.30926905
N        2.78922884       2.64528899       0.19171992
C        3.55153872       3.51672862       1.08058956
H        2.29148903      -1.89609920      -0.68247972
H        3.90501847      -1.38641946      -0.15042994
H        3.26648868      -0.81888968      -1.69969931
H        2.10268923      -0.14390994       1.05367956
H        1.44496939       0.41528984      -0.47563981
H        4.20762825       1.05291961       0.69612970
H        4.49620840       2.70837887      -1.19082955
H        1.68483940       1.96527922      -2.16012916
H        3.18342880       1.46653943      -2.96807871
H        2.77693879       3.18277879      -2.82658900
H        3.19672868       3.39161874       2.10875918
H        3.38780879       4.56158845       0.79783970
H        4.63294823       3.33376877       1.07480953
