17
Properties=species:S:1:pos:R:3 atomization_energy=-1778.83 smiles=C.C.C.C.C.C.C.H.H.H.H.H.H.H.H.H.H pbc="F F F"
C        0.88995967       0.00360000       0.24580990
C        2.34926910       0.01401999      -0.01414000
C        3.15182885       1.08325960      -0.16278993
C        4.55652820       0.73632973      -0.42077984
C        5.36241771      -0.00131000       0.61070977
C        4.57771796      -0.78176967      -0.41223985
C        3.16035866      -1.25474947      -0.14853994
H        0.49766982      -1.01930959       0.23295991
H        0.35461985       0.57375977      -0.52081979
H        0.66862976       0.43421983       1.22768947
H        2.81642888       2.11164914      -0.10580996
H        5.06018794       1.25354951      -1.22745947
H        6.44258726       0.01631999       0.51311981
H        5.01902817      -0.00130000       1.63975940
H        5.09432786      -1.30973952      -1.20002955
H        3.11722868      -1.85279928       0.76688970
H        2.79743894      -1.85276926      -0.99047960
