14
Properties=species:S:1:pos:R:3 atomization_energy=-1437.89 smiles=C.N.C.C.S.C.C.H.H.H.H.H.H.H pbc="F F F"
C        2.94115875      -1.18280958       0.47905982
N        2.38742916       0.08004997       0.03803998
C        3.10479885       1.22951950       0.00808000
C        2.51142903       2.45820909      -0.18137994
S        3.64844856       3.73814854      -0.17676994
C        4.94636787       2.64968889       0.06893997
C        4.51656801       1.34235952       0.14782994
H        2.18340924      -1.96661923       0.38745985
H        3.24772861      -1.13009960       1.52847943
H        3.79762856      -1.47797936      -0.13530994
H        1.37093944       0.12240995       0.06759997
H        1.46313938       2.67657883      -0.32311986
H        5.95949755       3.02021893       0.14197994
H        5.19741779       0.51580978       0.29709987
