13
Properties=species:S:1:pos:R:3 atomization_energy=-1375.99 smiles=C.C.C.C.O.C.S.H.H.H.H.H.H pbc="F F F"
C        0.89608967       0.10639996      -0.00828000
C        2.38539916       0.06429997       0.00008000
C        3.27705883       1.11957953       0.00492000
C        4.62114821       0.66943975       0.01228999
O        5.71277764       1.45386937       0.01824999
C        4.73082803      -0.69735976       0.01290000
S        3.19356873      -1.44849938       0.00429000
H        0.53423977       1.13993951      -0.00039000
H        0.48781981      -0.39764983       0.87391966
H        0.49890980      -0.38047986      -0.90505967
H        2.96611885       2.15662908       0.00313000
H        5.45331802       2.39059894       0.01676999
H        5.63407754      -1.29042949       0.01787000
