12
Properties=species:S:1:pos:R:3 atomization_energy=-1244.44 smiles=O.N.C.O.C.C.C.H.H.H.H.H pbc="F F F"
O        1.08651959       0.06050998      -0.42295983
N        2.32210917       0.02817999       0.23832990
C        2.86824889       1.19355952       0.26015990
O        4.07788835       1.37571948       0.86226965
C        4.45510818       2.74807891       0.75807968
C        3.34303867       3.37275874       0.01950999
C        2.40817911       2.47693913      -0.27920990
H        0.79550968      -0.86813963      -0.35493987
H        5.40090781       2.82314897       0.21582991
H        4.56827825       3.16844865       1.76083930
H        3.30186880       4.42033845      -0.23979990
H        1.48176938       2.61380890      -0.80728970
