14
Properties=species:S:1:pos:R:3 atomization_energy=-1411.34 smiles=O.C.C.C.N.C.O.H.H.H.H.H.H.H pbc="F F F"
O        3.83721858      -1.06499952      -0.06508998
C        2.64150907      -0.30452989      -0.04322998
C        2.93517875       1.16267960       0.00888000
C        4.15531847       1.71478935       0.03510998
N        4.33533815       3.07003870       0.08211997
C        5.55035806       3.69679851       0.11077996
O        5.67547752       4.91463823       0.15247994
H        3.57373858      -1.99978918      -0.10155996
H        2.05735919      -0.59556977       0.83548967
H        2.06441916      -0.53353981      -0.94467965
H        2.05647918       1.80257930       0.02535999
H        5.05190795       1.09745954       0.01969999
H        3.53441855       3.69059848       0.09789996
H        6.41314727       3.01054883       0.09316997
