20
Properties=species:S:1:pos:R:3 atomization_energy=-1934.12 smiles=C.C.C.C.N.C.C.H.H.H.H.H.H.H.H.H.H.H.H.H pbc="F F F"
C        0.99698962       0.01141000      -0.02570999
C        2.51671890       0.01815999       0.03287999
C        3.07254889       1.12734957       0.91128967
C        4.47666838       0.63109978       1.18835948
N        4.33001850      -0.81372970       1.37179951
C        3.11365870      -1.24674956       0.66344972
C        3.41083856      -2.33153905      -0.36563985
H        0.63582972      -0.81033969      -0.65196972
H        0.62411973       0.94956964      -0.44886983
H        0.55802976      -0.10545995       0.97088961
H        2.90754898       0.15144994      -0.98553959
H        2.50449900       1.21913948       1.84480921
H        3.06814874       2.09793922       0.40621982
H        5.12706784       0.83037965       0.32825988
H        4.91606794       1.10419956       2.07088919
H        5.15888782      -1.30116946       1.03686957
H        2.42732904      -1.65736935       1.41418940
H        4.12646842      -1.98476916      -1.11950951
H        2.49596894      -2.63535900      -0.88424966
H        3.83436850      -3.21923864       0.11591995
