13
Properties=species:S:1:pos:R:3 atomization_energy=-1372.06 smiles=C.C.C.C.N.N.C.H.H.H.H.H.H pbc="F F F"
C        1.48800941      -0.32369987      -1.11606960
C        2.14037919       0.09228996      -0.02140999
C        3.26229872       1.08671956       0.04785998
C        2.75835888       2.41190908       0.52183981
N        2.96624880       3.37597874      -0.31573986
N        3.63363848       2.83628887      -1.45784939
C        3.80298859       1.56894933      -1.26155951
H        0.68693974      -1.05369956      -1.03732957
H        1.70664927       0.05331998      -2.11134911
H        1.83853928      -0.33335987       0.93478966
H        4.07512835       0.72615971       0.68219976
H        2.28524913       2.53568891       1.50513942
H        4.31480848       0.89364963      -1.96001925
