16
Properties=species:S:1:pos:R:3 atomization_energy=-1548.92 smiles=C.C.C.C.C.O.H.H.H.H.H.H.H.H.H.H pbc="F F F"
C        0.87695968       0.00942000      -0.25075989
C        2.35343913       0.02508999       0.04777998
C        2.67923890       0.00136000       1.51851941
C        3.27900860      -0.70478972      -0.89893963
C        3.24581871       0.79800971      -0.90093967
O        4.37346843       1.47150947      -0.32484987
H        0.67493975       0.02009999      -1.32742946
H        0.39091985       0.88571968       0.19074992
H        0.41275984      -0.88984964       0.16751993
H        3.75394851      -0.09156996       1.70821927
H        2.18721919      -0.84878967       2.00338919
H        2.32872909       0.92065961       1.99951918
H        2.84859885      -1.21635954      -1.75341937
H        4.14630848      -1.21110954      -0.49223981
H        2.77554895       1.28404955      -1.75123936
H        5.06278796       0.85249964      -0.03195999
