18
Properties=species:S:1:pos:R:3 atomization_energy=-1712.3 smiles=O.C.C.C.C.C.N.H.H.H.H.H.H.H.H.H.H.H pbc="F F F"
O        3.99919834       1.50652938       2.39520903
C        3.37472869       2.65034899       1.83113929
C        3.08174889       2.41356916       0.35553985
C        4.32042839       2.09883916      -0.48827981
C        5.33773769       3.19969861      -0.47804980
C        5.96416770       3.66595858      -1.76925934
N        5.00468819       4.50154824      -1.05240958
H        4.09194850       1.67581931       3.34862856
H        4.02698834       3.51625852       1.97713916
H        2.43839906       2.83246883       2.36836907
H        2.56565905       3.29120882      -0.05205998
H        2.39421914       1.56325938       0.26476990
H        3.99150854       1.89373927      -1.51432945
H        4.79468802       1.17692951      -0.13069995
H        5.94880779       3.20114876       0.41787983
H        5.61482769       3.24865870      -2.70530901
H        6.99632719       3.99094837      -1.75875933
H        5.48349785       5.25301798      -0.55212981
