18
Properties=species:S:1:pos:R:3 atomization_energy=-1696.16 smiles=C.C.C.C.C.O.H.H.H.H.H.H.H.H.H.H.H.H pbc="F F F"
C        0.90771962      -0.25969990       0.39783984
C        2.35629905      -0.20398992      -0.08952997
C        2.63036890      -1.37916947      -1.03110960
C        2.68453887       1.12038951      -0.79851967
C        2.57912900       2.34375920       0.10579996
O        2.96908879       3.50684859      -0.61418973
H        0.71831971       0.49124982       1.17065958
H        0.68283973      -1.23813952       0.83569968
H        0.20537992      -0.08845997      -0.42478983
H        3.01601887      -0.30990987       0.78110970
H        1.99796924      -1.32896943      -1.92387923
H        2.43499915      -2.33311915      -0.53024978
H        3.67619843      -1.38220943      -1.35552944
H        2.03097921       1.25944952      -1.66972930
H        3.70366848       1.07384954      -1.20500956
H        3.22562868       2.24708907       0.98361960
H        1.55277943       2.50070899       0.44755982
H        3.89069843       3.38067867      -0.89810965
