12
Properties=species:S:1:pos:R:3 atomization_energy=-1287.12 smiles=C.C.C.C.C.O.H.H.H.H.H.H pbc="F F F"
C        1.45783942      -0.53428980      -0.21283992
C        2.74679883      -0.24042991      -0.00980000
C        3.26954870       1.10287961      -0.09857997
C        4.56236815       1.38572946       0.10140996
C        5.04121818       2.77711895      -0.00268000
O        6.22026777       3.05972870       0.17352992
H        1.10890958      -1.55986944      -0.13571995
H        0.71945968       0.22243991      -0.45883982
H        3.43890865      -1.04502958       0.23361990
H        2.56077897       1.89348921      -0.33906987
H        5.31094768       0.63976975       0.34245985
H        4.28467811       3.54075862      -0.24600990
