18
Properties=species:S:1:pos:R:3 atomization_energy=-1792.47 smiles=C.C.C.N.C.C.C.H.H.H.H.H.H.H.H.H.H.H pbc="F F F"
C        0.93423964       0.01830999      -0.09078996
C        2.44115906      -0.04711998       0.16753993
C        3.16184867       1.22764948      -0.33619986
N        3.39445873       1.20486951      -1.78455932
C        4.25113823       0.07524997      -2.15529904
C        3.84731839      -1.22077950      -1.51431936
C        3.01304893      -1.29169948      -0.46528982
H        0.49552979       0.89193964       0.40380984
H        0.43147982      -0.87141968       0.30611989
H        0.70499971       0.08437997      -1.15985955
H        2.59851889      -0.11195995       1.25131954
H        2.56731889       2.11422922      -0.08605997
H        4.12133828       1.34111943       0.18508993
H        3.85067844       2.06926922      -2.06937923
H        5.29358779       0.29028989      -1.89058929
H        4.21113843      -0.03961998      -3.24360879
H        4.25929812      -2.13118904      -1.93846927
H        2.73523903      -2.25566909      -0.04970998
