14
Properties=species:S:1:pos:R:3 atomization_energy=-1370.19 smiles=O.C.C.O.N.C.C.H.H.H.H.H.H.H pbc="F F F"
O        0.93417964       0.00622000       0.20744991
C        2.36261919       0.02273999       0.15616994
C        2.85606886       1.22449950      -0.63758974
O        4.21507833       0.99524961      -0.99526961
N        4.30728850       0.00530000      -1.99533919
C        3.65066857      -1.07560955      -1.70003933
C        2.86849895      -1.28722955      -0.43552984
H        0.64379973       0.81782970       0.66026971
H        2.72172897       0.08952997       1.19039958
H        2.80006898       2.13127912      -0.02655999
H        2.24861921       1.41000940      -1.53257943
H        3.70955865      -1.92668919      -2.39753906
H        2.04510913      -1.97564928      -0.65633971
H        3.53671855      -1.79681934       0.26803989
