12
Properties=species:S:1:pos:R:3 atomization_energy=-1248.94 smiles=C.C.C.C.C.O.H.H.H.H.H.H pbc="F F F"
C        0.99999962       0.00000000       0.00000000
C        2.44399905       0.00000000       0.00000000
C        3.63415853       0.00000000       0.00000000
C        5.06385785      -0.01738999       0.01962999
C        5.81121761      -0.74553970      -1.06343961
O        5.65995764       0.67930974      -1.08343951
H        0.60593976       1.02084963       0.01163999
H        0.60591977      -0.52053979       0.87822967
H        0.60599976      -0.50032979      -0.88994963
H        5.54412800       0.08299997       0.98578959
H        5.25327788      -1.31754942      -1.79411927
H        6.79092753      -1.14177951      -0.83114970
