13
Properties=species:S:1:pos:R:3 atomization_energy=-1420.19 smiles=C.C.C.N.C.C.N.H.H.H.H.H.H pbc="F F F"
C        3.07522891      -1.15157955       0.38258985
C        2.44608911      -0.00359000       0.10198996
C        3.05319887       1.27474950       0.03341999
N        2.47356899       2.44334904      -0.16155993
C        3.47627866       3.37735874      -0.15264994
C        4.69363793       2.77650882       0.04530998
N        4.41300823       1.44213937       0.15981993
H        2.50564913      -2.07704922       0.41357982
H        4.13361848      -1.23403951       0.59457975
H        1.37447952      -0.02354999      -0.08469997
H        3.26559871       4.42985841      -0.29086987
H        5.69955800       3.16465863       0.11101996
H        5.08806802       0.70762970       0.30564989
