16
Properties=species:S:1:pos:R:3 atomization_energy=-1550.73 smiles=C.C.C.C.C.O.H.H.H.H.H.H.H.H.H.H pbc="F F F"
C        1.06469963       0.09097997      -0.11400996
C        2.55214898       0.03700998      -0.04191998
C        3.34011869      -0.65310975      -1.12753957
C        3.44616872       0.84012967      -0.96120962
C        2.90598881       1.74512928      -2.02150922
O        4.66390826       1.32477947      -0.37588986
H        0.69032974       0.93072965       0.47832982
H        0.63996972      -0.83027966       0.29947989
H        0.69006972       0.19729992      -1.13538960
H        2.88086899      -0.10302996       0.98246960
H        2.80697882      -1.03830956      -1.98939918
H        4.18587830      -1.26487956      -0.83551970
H        2.06902913       1.30120946      -2.56875894
H        3.68832851       1.97590918      -2.75267890
H        2.56617911       2.68634884      -1.57879933
H        5.00038796       0.73346969       0.31901988
