9
Properties=species:S:1:pos:R:3 atomization_energy=-893.41 smiles=O.C.S.O.O.C.C.H.H pbc="F F F"
O        2.72089905      -0.99799958      -0.16045994
C        2.13541912       0.06839997       0.01189999
S        3.00711889       1.58469934       0.07880997
O        2.80469901       2.33392913      -1.13953956
O        2.95662893       2.13010906       1.41607948
C        4.75050835       1.25377951      -0.04996998
C        5.92960790       1.03475957      -0.13625995
H        1.04424956       0.13173995       0.13301995
H        6.97449701       0.84343968      -0.21275991
