11
Properties=species:S:1:pos:R:3 atomization_energy=-1210.11 smiles=O.C.C.C.N.C.N.H.H.H.H pbc="F F F"
O        0.93357966      -0.03290999       0.00836000
C        2.30213918      -0.00399000      -0.00214000
C        3.02244878       1.11565956      -0.00431000
C        2.48596905       2.47376909       0.00393000
N        3.46480869       3.32304873      -0.00115000
C        4.58796816       2.51334902      -0.01232999
N        4.38703830       1.22702950      -0.01460999
H        0.65209973      -0.96653962       0.00734000
H        2.76288899      -0.98311960      -0.00867000
H        1.40843939       2.68189898       0.01293000
H        5.59612792       2.95734882      -0.01887999
