11
Properties=species:S:1:pos:R:3 atomization_energy=-1175.07 smiles=C.C.C.N.S.N.C.H.H.H.H pbc="F F F"
C        1.09314960      -0.20875992      -0.39026984
C        2.39586913       0.00761000      -0.15441993
C        3.03029880       1.29525949      -0.10743996
N        2.38339917       2.45357906      -0.29721988
S        3.54154867       3.64965849      -0.14516994
N        4.89391830       2.71327889       0.16630994
C        4.43675815       1.45951944       0.15116994
H        0.68932976      -1.21488946      -0.40946985
H        0.40347986       0.61189976      -0.56881976
H        3.02714870      -0.86153966       0.01579000
H        5.15023790       0.66730976       0.33261988
