13
Properties=species:S:1:pos:R:3 atomization_energy=-1317.52 smiles=N.C.C.C.S.C.N.H.H.H.H.H.H pbc="F F F"
N        2.28269907      -0.45978981      -1.37730941
C        2.36215919      -0.00804000       0.00903000
C        2.83913895       1.40907943       0.02211999
C        2.04973916       2.54409911       0.08097997
S        3.02985874       3.94967833       0.05705998
C        4.42013810       2.95260878      -0.04113999
N        4.20641832       1.65560934      -0.05156998
H        2.15730911      -1.46906942      -1.38554941
H        3.19388869      -0.28713988      -1.80570935
H        3.06241880      -0.63875974       0.56783976
H        1.37918941      -0.09310996       0.48458982
H        0.97217959       2.60793892       0.12669995
H        5.41561771       3.37467874      -0.09105996
