14
Properties=species:S:1:pos:R:3 atomization_energy=-1448.08 smiles=C.C.C.C.S.C.N.H.H.H.H.H.H.H pbc="F F F"
C        0.95689961      -0.18542993      -0.01236000
C        2.46119896       0.02922999       0.02768999
C        2.82461880       1.47763947       0.01217000
C        3.06334890       2.28050909       1.11309954
S        3.44391868       3.87491838       0.61162977
C        3.26486871       3.38020857      -1.01917957
N        2.94355892       2.11998906      -1.21088951
H        0.72503974      -1.25522953      -0.00569000
H        0.51843980       0.25257990      -0.91593963
H        0.46811981       0.27439990       0.85370969
H        2.92230885      -0.46813980      -0.83342970
H        2.87317894      -0.44654984       0.92505964
H        3.03152891       2.01332915       2.15960911
H        3.40927865       4.07035828      -1.83995928
