14
Properties=species:S:1:pos:R:3 atomization_energy=-1401.48 smiles=O.C.C.N.C.C.O.H.H.H.H.H.H.H pbc="F F F"
O        0.91349964      -0.02122999       0.36263985
C        2.32093912       0.02378999       0.04332999
C        3.17356870       1.04601961       0.82342969
N        4.13618848      -0.02634999       1.00328958
C        3.20795868      -1.08095960       0.66096974
C        5.22974798      -0.05363998       1.81387933
O        5.77665782       0.92479961       2.30175916
H        0.55097981      -0.73730972      -0.18678993
H        2.45693910       0.11470996      -1.04262960
H        2.74394900       1.40343945       1.76412932
H        3.55277868       1.88349929       0.23263991
H        3.60797866      -1.80694931      -0.05024998
H        2.79049882      -1.59023940       1.53436934
H        5.59287790      -1.07941962       1.99176920
