19
Properties=species:S:1:pos:R:3 atomization_energy=-1805.48 smiles=C.C.N.C.C.C.N.H.H.H.H.H.H.H.H.H.H.H.H pbc="F F F"
C        1.03554956       0.03042999      -0.06063997
C        2.55454891       0.01839999       0.04183998
N        3.05435884       1.08319954       0.92655962
C        4.43336833       0.67687973       1.22000951
C        4.40622809      -0.84037966       1.34598943
C        3.10691868      -1.27788951       0.66916975
N        3.31343870      -2.37392919      -0.27586988
H        0.68286976      -0.77610969      -0.71169974
H        0.68232971       0.97933962      -0.47832982
H        0.56428978      -0.09945996       0.92002966
H        2.97663879       0.17189993      -0.95992961
H        2.52019905       1.07035954       1.79666933
H        5.08347812       0.97648960       0.39007984
H        4.81027805       1.15927956       2.12694911
H        5.30215797      -1.28113954       0.89364963
H        4.39011825      -1.14219951       2.40009896
H        2.42083908      -1.63651935       1.44791940
H        3.97512846      -2.08308915      -0.99705958
H        2.44120903      -2.57223909      -0.76684971
