10
Properties=species:S:1:pos:R:3 atomization_energy=-1156.77 smiles=O.C.C.C.C.C.N.H.H.H pbc="F F F"
O        1.18865950      -0.31293987       0.50670980
C        2.23779900      -0.04211999      -0.07343997
C        2.96858892       1.28344950       0.00000000
C        2.52412911       2.11030913       1.13986961
C        2.16280918       2.79051901       2.06220924
C        4.38840846       1.02029961       0.00000000
N        5.52014796       0.81054969       0.00000000
H        2.65734892      -0.77163971      -0.79040968
H        2.71214896       1.81048926      -0.92786966
H        1.83669928       3.38683858       2.88399891
