12
Properties=species:S:1:pos:R:3 atomization_energy=-1277.85 smiles=O.C.C.C.N.C.O.H.H.H.H.H pbc="F F F"
O        1.67380937      -0.30327987      -1.07295957
C        2.61154902      -0.04933998      -0.03542999
C        2.91670886       1.39110941      -0.04619998
C        2.22525914       2.53227891      -0.38691986
N        3.00898892       3.63940854      -0.17693993
C        4.13529825       3.13410889       0.27142990
O        4.15815845       1.77711933       0.38679984
H        1.55049937      -1.26666947      -1.10542955
H        3.51058864      -0.64503975      -0.21959992
H        2.16985906      -0.34430988       0.92075966
H        1.21676958       2.60576887      -0.76824970
H        5.03507795       3.65938864       0.55882977
