20
Properties=species:S:1:pos:R:3 atomization_energy=-1917.37 smiles=C.C.C.C.C.C.N.H.H.H.H.H.H.H.H.H.H.H.H.H pbc="F F F"
C        2.01583921      -1.05656958      -0.63829973
C        1.73257933       0.33709986      -0.09772996
C        2.99341882       1.07659957       0.32169986
C        3.64027858       0.54908978       1.58055934
C        3.89594843       1.62430942      -0.76524967
C        3.03597878       2.56558890       0.02347999
N        3.66094854       3.51849872       0.93639965
H        1.08656955      -1.52566934      -0.97723960
H        2.45534891      -1.70308938       0.12724995
H        2.70788884      -1.02013963      -1.48590938
H        1.05319957       0.26696991       0.75925970
H        1.19824948       0.90217963      -0.87181963
H        4.58151807       1.05585958       1.81267924
H        3.87107841      -0.51533978       1.48338947
H        2.96658894       0.67821974       2.43277914
H        3.62755856       1.45473940      -1.80230931
H        4.96708780       1.63218934      -0.59951976
H        2.18151903       2.98737877      -0.50421980
H        4.57079803       3.19540873       1.26053947
H        3.08888886       3.64251852       1.77127925
