13
Properties=species:S:1:pos:R:3 atomization_energy=-1293.13 smiles=O.S.O.C.C.C.C.H.H.H.H.H.H pbc="F F F"
O        0.95160962       0.00606000      -0.06515997
S        2.39343893       0.03432999      -0.20134992
O        3.04121869       0.16246993      -1.48964943
C        3.07938884      -1.38071942       0.65686974
C        3.37100858      -0.89290967       2.07174913
C        3.51599862       0.60049976       2.01220917
C        3.05314891       1.19283949       0.90319967
H        4.00335853      -1.66232930       0.14278994
H        2.37142908      -2.21135922       0.62880975
H        4.27948816      -1.36479946       2.45795902
H        2.54678897      -1.14682954       2.74783894
H        3.94353836       1.15840953       2.83765877
H        3.05149892       2.24707923       0.67972975
