9
Properties=species:S:1:pos:R:3 atomization_energy=-1050.62 smiles=N.C.C.N.C.C.S.H.H pbc="F F F"
N        0.84104967       0.26579991       0.00533000
C        2.00016919       0.18451993       0.00176000
C        3.42791861       0.05512998      -0.00254000
N        4.23156843       1.10217952      -0.00848000
C        5.54844792       0.68395971      -0.01151000
C        5.73890755      -0.68018975      -0.00785000
S        4.22008837      -1.47493941      -0.00033000
H        6.33978750       1.42470946      -0.01645999
H        6.66888751      -1.23112950      -0.00918000
