14
Properties=species:S:1:pos:R:3 atomization_energy=-1448.88 smiles=C.C.C.S.N.C.C.H.H.H.H.H.H.H pbc="F F F"
C        0.93701963       0.05576998      -0.00928000
C        2.42606915       0.05908998      -0.00245000
C        3.21555865       1.19573954       0.00686000
S        4.86035824       0.74170969       0.01183000
N        4.58533837      -0.88753968       0.00220000
C        3.27045861      -1.11234961      -0.00465000
C        2.81878894      -2.53224888      -0.01421000
H        0.53528979       1.07428960      -0.00304000
H        0.55211978      -0.46377980       0.87399965
H        0.56040980      -0.44982983      -0.90413967
H        2.91688877       2.23414902       0.01079999
H        1.72745928      -2.61407890      -0.00921000
H        3.19769864      -3.05911882       0.86780964
H        3.18873886      -3.04375891      -0.90902966
