16
Properties=species:S:1:pos:R:3 atomization_energy=-1425.7 smiles=C.N.C.S.C.O.O.H.H.H.H.H.H.H.H.H pbc="F F F"
C        1.46790945       0.09614996       0.97762964
N        2.91141873       0.27990989       0.91544966
C        3.24280865       1.59930932       0.33187989
S        5.00401799       1.93731927       0.04654999
C        5.70369775       1.84935925       1.67666929
O        5.55155765       0.84159968      -0.73437972
O        5.13309805       3.30757881      -0.41439984
H        1.24389948      -0.88299968       1.41191942
H        1.01376959       0.13468995      -0.01781999
H        1.00082960       0.85432967       1.61434940
H        3.31531881      -0.43777985       0.30553988
H        2.88371882       2.40425915       0.98258959
H        2.77175894       1.70834935      -0.65214975
H        5.21091802       2.58801888       2.31140907
H        6.76949754       2.07471920       1.60065942
H        5.56455775       0.84192967       2.07191920
