16
Properties=species:S:1:pos:R:3 atomization_energy=-1677.24 smiles=C.N.C.C.C.C.C.H.H.H.H.H.H.H.H.H pbc="F F F"
C        0.96164962       0.03348999      -0.00794000
N        2.40639917       0.01623000      -0.00066000
C        3.21729872       1.11717961       0.00408000
C        4.52240847       0.67721975       0.01059000
C        4.50288812      -0.74590968       0.00978000
C        5.68483801      -1.64329936       0.01527000
C        3.17248872      -1.11931950       0.00260000
H        0.60777977       1.06763954       0.00197000
H        0.60689976      -0.49025979       0.88260963
H        0.61666977      -0.47005982      -0.91403964
H        2.81099897       2.11920911       0.00246000
H        5.39900776       1.31227949       0.01540999
H        5.38562764      -2.69630886       0.02324999
H        6.30055756      -1.45843947       0.90155965
H        6.29884776      -1.47116945      -0.87470965
H        2.71495891      -2.09995914      -0.00042000
