15
Properties=species:S:1:pos:R:3 atomization_energy=-1519.72 smiles=C.C.N.N.C.C.C.H.H.H.H.H.H.H.H pbc="F F F"
C        1.00223963       0.01864999      -0.09332997
C        2.50036910       0.03242999       0.07906997
N        3.09656881       1.18871956       0.12207995
N        4.43624844       1.15629953       0.34738987
C        5.25457788       0.03508999      -0.11147996
C        4.51916803      -1.26060949       0.03098999
C        3.18747871      -1.28743949       0.16830993
H        0.61251974      -1.00107960      -0.14759994
H        0.73876971       0.54725981      -1.01419962
H        0.53860978       0.52931982       0.75599971
H        4.86948809       2.04815918       0.10793995
H        6.16911771       0.00290000       0.48979979
H        5.54361779       0.17612993      -1.15873958
H        5.09292792      -2.18009916       0.02582999
H        2.61233907      -2.19543914       0.27229990
