18
Properties=species:S:1:pos:R:3 atomization_energy=-1697.69 smiles=C.C.C.C.C.O.H.H.H.H.H.H.H.H.H.H.H.H pbc="F F F"
C        0.99510963      -0.01390999      -0.01514999
C        2.53260896      -0.02198999       0.01339999
C        3.00626879      -0.75843969       1.27808948
C        3.05790889      -0.76988973      -1.22381947
C        3.03718871       1.43659944       0.00939000
O        4.45650812       1.51422940      -0.00823000
H        0.61893974       0.49323979      -0.91041963
H        0.58667976       0.50443980       0.85932968
H        0.59297978      -1.03298960      -0.01659000
H        2.68771900      -0.23042991       2.18350917
H        4.09696838      -0.85052969       1.30879946
H        2.59230902      -1.77210930       1.32131950
H        2.74909883      -0.26828989      -2.14740915
H        2.67302903      -1.79511926      -1.25740955
H        4.15157841      -0.82812967      -1.22428956
H        2.67548901       1.98505921       0.88654966
H        2.67234900       1.96466921      -0.87851966
H        4.77996802       1.21784956       0.85888967
