9
Properties=species:S:1:pos:R:3 atomization_energy=-1019.74 smiles=C.C.C.N.C.N.S.H.H pbc="F F F"
C        0.90142964       0.10122996       0.00188000
C        2.10019923       0.06090998      -0.00057000
C        3.52374872       0.01898999      -0.00349000
N        4.26647846       1.10553956      -0.00890000
C        5.59420768       0.70950969      -0.01035000
N        5.91665776      -0.58376975      -0.00652000
S        4.46487845      -1.41772947      -0.00048000
H       -0.16378994       0.14592995       0.00402000
H        6.38694771       1.44755944      -0.01466999
