15
Properties=species:S:1:pos:R:3 atomization_energy=-1448.92 smiles=O.N.C.C.C.N.C.H.H.H.H.H.H.H.H pbc="F F F"
O        1.16433956       0.07590997       0.65871977
N        2.32177913      -0.00007000      -0.12438995
C        2.93740885       1.14256956      -0.14586994
C        2.52403903       2.40393894       0.54549980
C        3.33474857       3.40743865      -0.26259990
N        4.58999842       2.72569889      -0.59671977
C        4.21621836       1.34147951      -0.92194965
H        0.80398971      -0.82729970       0.58767975
H        2.84601876       2.36117914       1.58945932
H        1.45123944       2.59002895       0.47609982
H        2.80078889       3.67544851      -1.18273956
H        3.51987872       4.32504808       0.30321988
H        5.04233803       3.16868887      -1.39447942
H        4.01293854       1.22014956      -1.99142919
H        4.98516784       0.63576974      -0.59649973
