11
Properties=species:S:1:pos:R:3 atomization_energy=-1189.89 smiles=O.C.C.C.N.N.C.H.H.H.H pbc="F F F"
O        0.90149966      -0.07925997       0.00653000
C        2.26971915      -0.03260999      -0.00050000
C        2.95385883       1.10642954      -0.00110000
C        2.47219909       2.47662902       0.00502000
N        3.45900860       3.32566868       0.00189000
N        4.70011831       2.56780891      -0.00671000
C        4.39278842       1.30432954      -0.00826999
H        0.61747976      -1.01229957       0.00485000
H        2.73671895      -1.00945959      -0.00554000
H        1.40148943       2.71723898       0.01140000
H        5.09626778       0.46230982      -0.01419999
