20
Properties=species:S:1:pos:R:3 atomization_energy=-1915.77 smiles=C.C.C.C.C.C.N.H.H.H.H.H.H.H.H.H.H.H.H.H pbc="F F F"
C        2.96586879      -1.03583962      -0.67739972
C        2.39872906       0.15775993       0.07499997
C        3.36253857       1.30551953       0.09421996
C        3.47404855       2.31246911      -1.03230956
C        2.64009904       2.24634924      -2.26669900
C        2.84660896       2.71090900       0.27796988
N        3.56172861       3.62783865       1.16056948
H        2.25706903      -1.86916927      -0.65904975
H        3.90365841      -1.37403946      -0.22557992
H        3.17011883      -0.78295967      -1.72221937
H        2.18997919      -0.13949995       1.10954962
H        1.43767941       0.44359983      -0.36708984
H        4.28207809       1.03395962       0.60240978
H        4.46680828       2.68415886      -1.26083949
H        1.59534936       1.99410920      -2.05973917
H        3.04450884       1.49898935      -2.95543893
H        2.65225889       3.21529874      -2.77492897
H        1.76647928       2.84897886       0.28439988
H        4.56949802       3.48859873       1.10463963
H        3.30918868       3.45736870       2.13338911
