12
Properties=species:S:1:pos:R:3 atomization_energy=-1283.06 smiles=O.C.C.N.C.C.C.H.H.H.H.H pbc="F F F"
O        1.20766951       0.45938981      -0.90894967
C        2.07254915       0.23178991      -0.06949997
C        3.18992885       1.17192956       0.17707992
N        3.68047848       1.89044925      -1.00751960
C        2.98429881       2.65784904       0.02704999
C        3.75723840       3.54376868       0.84454969
C        4.40362807       4.28957838       1.52893943
H        2.06228923      -0.68398973       0.54373979
H        3.95809837       0.82486968       0.85808966
H        3.04242887       1.73513936      -1.79535935
H        1.99254916       3.00882869      -0.24448991
H        4.98316786       4.95333827       2.12710910
