15
Properties=species:S:1:pos:R:3 atomization_energy=-1519.84 smiles=C.C.C.C.N.N.C.H.H.H.H.H.H.H.H pbc="F F F"
C        0.94691960      -0.00249000       0.03589998
C        2.46331905       0.00041000       0.10069996
C        3.00096883       0.00424000       1.52004942
C        3.04342886       1.11712952      -0.70717973
N        3.76346846       0.71306971      -1.70185939
N        3.76602862      -0.71474973      -1.69903934
C        3.04744875      -1.11743951      -0.70277971
H        0.58828976      -0.00135000      -1.00030961
H        0.52939981       0.88359966       0.52656979
H        0.53293977      -0.89200967       0.52338978
H        4.09735848       0.00228000       1.53514943
H        2.66553883      -0.88108965       2.07131916
H        2.66877902       0.89450964       2.06530913
H        2.86053891       2.17136926      -0.45880983
H        2.86829886      -2.17132914      -0.45009982
