19
Properties=species:S:1:pos:R:3 atomization_energy=-1787.4 smiles=C.C.N.C.C.C.N.H.H.H.H.H.H.H.H.H.H.H.H pbc="F F F"
C        0.90877967      -0.02206999       0.05606998
C        2.41967911      -0.02535999       0.02495999
N        2.95214878      -0.00240000      -1.35781948
C        3.17563883       1.04788957       0.85654968
C        4.21728825      -0.03292999       1.23762955
C        3.15141882      -1.09944955       0.89825966
N        3.75423844      -2.13958915       0.06321998
H        0.53389982      -0.02580999       1.08539962
H        0.50048981      -0.90586965      -0.44623981
H        0.50213980       0.86721963      -0.43797982
H        3.94785852       0.21881992      -1.41163946
H        2.49726896       0.69437973      -1.94915929
H        2.60861895       1.41331948       1.72256935
H        3.56873863       1.91728922       0.32005987
H        5.11000823      -0.01961999       0.60019973
H        4.54163813      -0.01221999       2.28214899
H        2.59819893      -1.46311945       1.77065927
H        3.82186851      -1.81080934      -0.90726965
H        3.15288864      -2.96025871      -0.01805999
