14
Properties=species:S:1:pos:R:3 atomization_energy=-1433.53 smiles=C.C.C.C.C.O.H.H.H.H.H.H.H.H pbc="F F F"
C        0.83183970       0.09778996       0.15796993
C        2.31651903      -0.00651000       0.01238000
C        3.11023885       1.05288958      -0.20173993
C        4.59057828       0.99165963      -0.35239987
C        5.29602784      -0.33590986      -0.27080989
O        5.20668794       2.03965916      -0.54151978
H        0.33924988      -0.50098980      -0.61434977
H        0.47721982       1.12932961       0.06807998
H        0.52610979      -0.28420988       1.13683949
H        2.72430905      -1.01031959       0.09177997
H        2.70189900       2.05674917      -0.28042989
H        4.93973812      -1.00137962      -1.06140961
H        5.14077801      -0.78507969       0.71345969
H        6.37042758      -0.18265993      -0.41173982
