13
Properties=species:S:1:pos:R:3 atomization_energy=-1376.33 smiles=C.C.C.S.C.C.O.H.H.H.H.H.H pbc="F F F"
C        0.93577961       0.01020999      -0.00913000
C        2.42661898       0.02070999      -0.00165000
C        3.19843872       1.16982953       0.00390000
S        4.88004815       0.84846965       0.01196999
C        4.60793816      -0.83872967       0.00796000
C        3.26807862      -1.13382956       0.00058000
O        2.85647890      -2.41486917      -0.00381000
H        0.52760980       1.02579961      -0.00086000
H        0.55471980      -0.51477980       0.87233969
H        0.56380978      -0.49702981      -0.90473965
H        2.85655889       2.19584918       0.00368000
H        5.43768762      -1.53016942       0.01108999
H        1.88664927      -2.46130898      -0.00940000
