16
Properties=species:S:1:pos:R:3 atomization_energy=-1609.81 smiles=C.C.C.N.C.C.C.H.H.H.H.H.H.H.H.H pbc="F F F"
C        0.89304965      -0.01957999       0.12957995
C        2.40750918      -0.00486000      -0.03953998
C        3.14684884       1.02999960       0.85062968
N        4.13036846      -0.00986000       1.22745947
C        3.16378885      -1.05380958       0.81936968
C        2.78327887       0.01929999      -1.45029939
C        3.09013891       0.03905998      -2.61226893
H        0.60664976      -0.03812999       1.18724947
H        0.45072983      -0.90317961      -0.34451985
H        0.43654982       0.87099968      -0.31722988
H        2.56968904       1.40027951       1.70699938
H        3.57923863       1.89668927       0.33926988
H        4.96162786       0.00582000       0.63357975
H        3.61010859      -1.89761924       0.28234988
H        2.59293909      -1.45894942       1.66410937
H        3.36037862       0.05651998      -3.64260861
