9
Properties=species:S:1:pos:R:3 atomization_energy=-1052.57 smiles=N.C.C.C.S.C.N.H.H pbc="F F F"
N        0.93714964      -0.04385998      -0.00573000
C        2.09807914      -0.02335999      -0.00208000
C        3.52996869       0.04953998       0.00227000
C        4.25174837       1.22498952       0.00075000
S        5.93159779       0.86910966       0.00729000
C        5.55735773      -0.80657970       0.01155000
N        4.27879828      -1.11578952       0.00846000
H        3.89019856       2.24393922      -0.00373000
H        6.33538735      -1.55974933       0.01649999
