13
Properties=species:S:1:pos:R:3 atomization_energy=-1348.23 smiles=O.C.C.N.C.C.N.H.H.H.H.H.H pbc="F F F"
O        1.03958957       0.06883997       0.08382996
C        2.26109901       0.04461998       0.04827998
C        3.03792879       1.33759941       0.05338998
N        4.29276835       1.35031943      -0.31541988
C        4.66215809       2.79750883      -0.21715991
C        3.34498868       3.57702847      -0.08604996
N        2.46349896       2.54039893       0.38851986
H        2.87588898      -0.86694964      -0.00201000
H        5.29497814       2.93931875       0.66611976
H        5.22206803       3.11037890      -1.10366954
H        3.01005881       3.94287851      -1.06234954
H        3.42308874       4.41460801       0.61184974
H        1.46529947       2.61579904       0.21224992
