15
Properties=species:S:1:pos:R:3 atomization_energy=-1541.17 smiles=C.C.N.C.N.C.C.H.H.H.H.H.H.H.H pbc="F F F"
C        1.00114962      -0.09102997      -0.12253995
C        2.50727894       0.04194998       0.04958998
N        3.16195869      -1.24297948      -0.41617985
C        4.01548834      -0.83792965      -1.31245952
N        4.07069842       0.48901981      -1.56123934
C        3.14150875       1.13568949      -0.80911967
C        2.82188883       2.43288916      -0.82546966
H        0.48104980       0.79626970       0.25264990
H        0.62668978      -0.96048959       0.42826983
H        0.72788969      -0.22688991      -1.17494958
H        2.76815892       0.18846992       1.10440963
H        4.68914795      -1.48831940      -1.89027931
H        4.59956834       0.93635966      -2.29288922
H        3.32587863       3.13129868      -1.48326937
H        2.04614924       2.82625895      -0.17699994
