10
Properties=species:S:1:pos:R:3 atomization_energy=-1125.07 smiles=O.C.C.N.O.C.C.H.H.H pbc="F F F"
O        2.56695907      -1.10641957       0.10963996
C        2.10533921       0.02759999       0.01097999
C        2.91978881       1.22626948      -0.01112999
N        2.35667906       2.43950907      -0.12104995
O        3.40635867       3.34280879      -0.11019996
C        4.57821808       2.67131898       0.00491000
C        4.32974850       1.32693943       0.07165997
H        1.01755961       0.19272992      -0.06777997
H        5.46912809       3.28228865       0.02365999
H        5.04735791       0.52572981       0.16606994
