10
Properties=species:S:1:pos:R:3 atomization_energy=-1151.7 smiles=C.C.C.C.C.C.H.H.H.H pbc="F F F"
C        0.97345961      -0.00545000      -0.00000000
C        2.31403912       0.00000000       0.00000000
C        3.01703879      -1.21762952       0.00000000
C        3.61211866      -2.24833912       0.00000000
C        3.00714892       1.24578957       0.00000000
C        3.59763863       2.29164901       0.00000000
H        0.40327985       0.91816967      -0.00000000
H        0.41018985      -0.93336966      -0.00000000
H        4.14752824      -3.16893868      -0.00000000
H        4.12638844       3.21566866       0.00000000
