10
Properties=species:S:1:pos:R:3 atomization_energy=-1152.05 smiles=O.C.C.C.O.C.N.H.H.H pbc="F F F"
O        1.00495963      -0.00778000       0.17735993
C        2.22462907      -0.01886000       0.06749998
C        2.94685891       1.25955954      -0.01776999
C        4.27065807       1.22147947      -0.14034994
O        5.01060788       0.05145998      -0.19150993
C        4.25312812      -1.07579955      -0.10199996
N        2.97585884      -1.15929950       0.01795999
H        2.36997919       2.17186912       0.02232999
H        4.90825828       2.09177919      -0.21259992
H        4.89916830      -1.96579927      -0.14670994
