13
Properties=species:S:1:pos:R:3 atomization_energy=-1314.85 smiles=N.C.C.C.C.N.S.H.H.H.H.H.H pbc="F F F"
N        1.92567924      -0.45446982      -1.21205957
C        2.59508895      -0.13083994       0.04421998
C        3.00274877       1.30075943       0.07154997
C        2.28450904       2.44348909      -0.22920991
C        3.09101879       3.60027852      -0.04372999
N        4.33777819       3.40427871       0.37507985
S        4.57620801       1.77356929       0.56120976
H        1.70383931      -1.44830937      -1.22239947
H        2.57790898      -0.30228988      -1.98076920
H        3.45643860      -0.79620971       0.16950994
H        1.90805919      -0.32485987       0.87523967
H        1.25547947       2.44198898      -0.56440976
H        2.77982899       4.62354838      -0.21192992
