17
Properties=species:S:1:pos:R:3 atomization_energy=-1679.81 smiles=C.C.N.C.N.C.C.H.H.H.H.H.H.H.H.H.H pbc="F F F"
C        1.04627957      -0.05954998       0.02247999
C        2.57076901      -0.02825999      -0.00998000
N        3.07292891      -1.12596956      -0.81738970
C        3.41401869      -0.61374973      -2.02909922
N        3.46063865       0.67457973      -2.16821915
C        3.11444875       1.19053949      -0.80306971
C        4.37874821       1.77162936      -0.17830993
H        0.65640974       0.79190967       0.58865974
H        0.68977973      -0.97834960       0.49943979
H        0.61764976      -0.02392999      -0.98475963
H        2.96714886      -0.07526997       1.01006959
H        2.57847899      -2.00921918      -0.79549971
H        3.60450860      -1.34088943      -2.83406886
H        2.35864901       1.97897917      -0.89367966
H        5.17000806       1.01853960      -0.09612996
H        4.17153832       2.16139915       0.82328964
H        4.76795807       2.59178897      -0.79080969
