12
Properties=species:S:1:pos:R:3 atomization_energy=-1286.76 smiles=O.C.N.C.C.C.O.H.H.H.H.H pbc="F F F"
O        2.32151897       3.71584851       0.95813963
C        2.74253897       3.72248861      -0.19022993
N        3.89978841       3.12195889      -0.64011974
C        4.74660832       2.41967911       0.18027993
C        5.86358745       1.84516929      -0.27617991
C        6.73433720       1.10306962       0.65472971
O        7.76395672       0.56692979       0.26305989
H        2.21002918       4.23341852      -1.00932964
H        4.12376848       3.21095864      -1.62476942
H        4.44984809       2.36063915       1.22729949
H        6.18720734       1.88439923      -1.30785953
H        6.41015764       1.05923956       1.70769934
