20
Properties=species:S:1:pos:R:3 atomization_energy=-1915.81 smiles=C.C.C.C.C.C.N.H.H.H.H.H.H.H.H.H.H.H.H.H pbc="F F F"
C        1.77642933      -0.56755980      -1.20279951
C        2.37309901      -0.01511999       0.08275997
C        3.19341885       1.25712946      -0.16155993
C        4.46723826       1.01925963      -0.97484964
C        2.37415906       2.51791899      -0.55232978
C        3.17267873       3.24132873       0.53913979
N        3.49110867       1.93024920       1.13361950
H        1.14902949      -1.43711949      -0.98350959
H        2.55555899      -0.88778968      -1.90137923
H        1.15630950       0.17965994      -1.70850933
H        2.99890879      -0.78575966       0.54929979
H        1.55169933       0.18752993       0.78282971
H        5.09484816       1.91582923      -1.03489962
H        4.22779835       0.73027971      -2.00346918
H        5.07313809       0.22088992      -0.53218977
H        1.30031949       2.45486898      -0.33847986
H        2.51033896       2.89471895      -1.57006942
H        4.04969841       3.78456840       0.16956993
H        2.59244906       3.90655845       1.18435953
H        4.44830837       1.83361933       1.46908948
