12
Properties=species:S:1:pos:R:3 atomization_energy=-1257.54 smiles=O.C.C.N.C.C.O.H.H.H.H.H pbc="F F F"
O        0.86418964       0.56848977       0.47736980
C        2.01786921       0.21975991       0.22003992
C        3.21253874       1.16040950      -0.06427998
N        2.82997882       2.56822905      -0.33024986
C        3.33973868       3.07104878       0.95826965
C        3.80545840       1.64207934       1.25369952
O        4.39805811       1.09900961       2.16324924
H        2.25895899      -0.85524967       0.15483994
H        3.94914844       0.75327971      -0.76104968
H        1.81505923       2.68302892      -0.42807982
H        4.15106845       3.79672850       0.87202964
H        2.57106903       3.43533867       1.64382938
