17
Properties=species:S:1:pos:R:3 atomization_energy=-1622.4 smiles=C.C.C.N.C.N.C.H.H.H.H.H.H.H.H.H.H pbc="F F F"
C        0.87657967      -0.16156994      -0.11263995
C        2.36591918       0.10554996      -0.07666997
C        2.85973877       1.19402949       0.90029963
N        4.06705829       0.34781987       1.14315951
C        3.22910883      -0.83727965       0.78943966
N        4.53959828       0.36194986       2.41123913
C        5.75861765       0.78036968       2.46178891
H        0.66216976      -1.06922960      -0.68583970
H        0.34828987       0.67016974      -0.58969979
H        0.46313983      -0.29165989       0.89301962
H        2.77147885       0.23449990      -1.09070955
H        2.22406914       1.34480953       1.78254925
H        3.07202884       2.16702916       0.44772983
H        3.76008849      -1.62072934       0.24071990
H        2.70318892      -1.29381943       1.63822940
H        6.27164746       0.84329964       3.43444869
H        6.33960734       1.08887952       1.57400933
