10
Properties=species:S:1:pos:R:3 atomization_energy=-1153.3 smiles=O.C.O.C.C.C.N.H.H.H pbc="F F F"
O        0.97094961       0.00014000      -0.27024990
C        2.18007923      -0.05102998      -0.07767997
O        2.91525896       1.12029955      -0.02872999
C        4.29226823       1.07514955       0.19072993
C        4.96911806      -0.05381998       0.36134987
C        4.11758838      -1.23703948       0.29398989
N        2.84747900      -1.24204951       0.09437997
H        4.71441792       2.07018922       0.20081993
H        6.03142760      -0.12777995       0.53296979
H        4.63820833      -2.19961926       0.43007983
