14
Properties=species:S:1:pos:R:3 atomization_energy=-1283.41 smiles=C.S.O.O.N.C.C.H.H.H.H.H.H.H pbc="F F F"
C        1.14962953      -0.04396998      -0.63352973
S        2.52496912       0.31162989       0.43282983
O        2.04538922       0.33679987       1.79939930
O        3.63245858      -0.53744980       0.04590998
N        2.88078874       1.91104920      -0.08371997
C        2.74664895       2.98799875       0.90582966
C        4.10115834       2.47837893       0.51611981
H        1.47536938       0.03234999      -1.67251932
H        0.34478988       0.66196973      -0.42065983
H        0.81500971      -1.06230955      -0.42344983
H        2.33822911       2.71482896       1.86778927
H        2.39407910       3.91022836       0.46654980
H        4.68728827       3.03433888      -0.20045992
H        4.63256822       1.82524925       1.19457957
