13
Properties=species:S:1:pos:R:3 atomization_energy=-1318.79 smiles=N.C.C.C.N.C.S.H.H.H.H.H.H pbc="F F F"
N        0.93767960       0.11284996      -0.11216996
C        2.28165921       0.02139999      -0.06098997
C        3.18575883       1.06133958      -0.01987999
C        4.52878841       0.60438976       0.02961999
N        5.59664773       1.42199942       0.07618997
C        4.61631808      -0.76498971       0.02598999
S        3.06991885      -1.49712942      -0.03896999
H        0.46880981       0.98379964       0.11230995
H        0.38326986      -0.71899969       0.06594997
H        2.88966879       2.10121915      -0.02777999
H        5.51318765       2.42911908      -0.01568000
H        6.54972761       1.07765961       0.01571000
H        5.50305806      -1.38091952       0.05791998
