17
Properties=species:S:1:pos:R:3 atomization_energy=-1687.21 smiles=C.C.C.C.C.N.N.H.H.H.H.H.H.H.H.H.H pbc="F F F"
C        0.99860959      -0.03848999       0.08111997
C        2.51410904      -0.02954999       0.07353997
C        3.11866874       1.16883951       0.81932969
C        4.48909822       0.67099972       1.28468946
C        4.23923829      -0.81086971       1.39901949
N        5.08862820      -1.61297937       1.92620925
N        3.05152869      -1.15444956       0.82285967
H        0.61554974      -0.92795962      -0.43039982
H        0.60295973       0.84573968      -0.42845983
H        0.60057974      -0.05184998       1.10176961
H        2.89138893      -0.06321998      -0.95562963
H        2.51119890       1.42832941       1.69604934
H        3.19158869       2.05980920       0.18835992
H        5.26085791       0.84581967       0.52883979
H        4.79400824       1.10538955       2.23945908
H        4.70948837      -2.56244890       1.90028929
H        2.96468889      -2.07945924       0.42193984
