16
Properties=species:S:1:pos:R:3 atomization_energy=-1648.85 smiles=C.C.C.N.C.C.C.H.H.H.H.H.H.H.H.H pbc="F F F"
C        1.05127958      -0.00063000       0.13796995
C        2.38810894      -0.01118000       0.05379998
C        3.26946871       1.19948956      -0.00891000
N        4.43019805       0.79864969      -0.82152970
C        4.59479827      -0.64208975      -0.54813976
C        3.24969881      -1.15871951      -0.12365995
C        2.94667875      -2.44721905       0.08148997
H        0.46572982      -0.91107966       0.11882996
H        0.50594981       0.93442964       0.21934992
H        3.60690853       1.47512941       0.99815962
H        2.77042890       2.06643920      -0.45446982
H        4.15838833       0.89180963      -1.79961933
H        4.96350823      -1.15268955      -1.44458938
H        5.32706812      -0.77489970       0.25681990
H        1.96457925      -2.76128895       0.41765983
H        3.68926844      -3.22371878      -0.06706997
