11
Properties=species:S:1:pos:R:3 atomization_energy=-1261.18 smiles=C.C.C.C.N.C.N.H.H.H.H pbc="F F F"
C        0.97531960      -0.03119998      -0.00260000
C        2.17487918       0.00092000       0.00043000
C        3.59573858       0.03588999       0.00408000
C        4.40510824       1.14493958       0.00353000
N        5.67784792       0.64237974       0.00819000
C        5.58247781      -0.72198968       0.01125000
N        4.32971822      -1.11862950       0.00885999
H       -0.08882996      -0.07040997      -0.00526000
H        4.19704825       2.20485917       0.00041000
H        6.53648729       1.17561953       0.00922000
H        6.45171761      -1.36624948       0.01517000
