20
Properties=species:S:1:pos:R:3 atomization_energy=-1904.4 smiles=C.C.C.C.N.C.C.H.H.H.H.H.H.H.H.H.H.H.H.H pbc="F F F"
C        2.31100913      -0.56348976      -1.45560944
C        2.43078901      -0.00653000      -0.04640998
C        3.29486863       1.24598954      -0.03903999
C        2.68537888       2.54410895      -0.61713974
N        3.17077868       3.29146872       0.56238978
C        4.46245809       3.91842837       0.28080990
C        3.35631861       2.02069924       1.29604954
H        1.70526927      -1.47461945      -1.45517947
H        3.29690872      -0.80784968      -1.86638921
H        1.83874922       0.16031994      -2.12801925
H        2.87883898      -0.76679968       0.60272973
H        1.43010948       0.20614992       0.34676986
H        4.29902819       1.03956958      -0.43650983
H        1.59044934       2.53630889      -0.68780971
H        3.07979887       2.85530884      -1.59082935
H        4.88827819       4.32143823       1.20585953
H        4.32326813       4.76175829      -0.40372986
H        5.20035795       3.24060883      -0.16362993
H        4.28987815       1.91269919       1.86022930
H        2.52679903       1.80752929       1.98212927
