14
Properties=species:S:1:pos:R:3 atomization_energy=-1441.97 smiles=O.N.C.C.C.C.C.H.H.H.H.H.H.H pbc="F F F"
O        1.13216960       0.14943994       0.54075976
N        2.39482903       0.01564000      -0.04936998
C        2.98464880       1.16987950      -0.13835995
C        4.36063839       1.27927948      -0.74822968
C        4.55031832       2.75907903      -0.67480973
C        3.52324860       3.39945867      -0.10661995
C        2.41803896       2.49186907       0.32491986
H        0.79744966      -0.76666973       0.52613978
H        4.35635835       0.91468964      -1.77849933
H        5.09430817       0.74159973      -0.14260995
H        5.43817764       3.25002861      -1.05029959
H        3.48055870       4.47141837       0.03290999
H        2.28721908       2.49886899       1.40947950
H        1.48132944       2.71768889      -0.19086992
