13
Properties=species:S:1:pos:R:3 atomization_energy=-1365.11 smiles=C.C.C.N.N.C.C.H.H.H.H.H.H pbc="F F F"
C        0.93092962       0.06131998       0.18152993
C        2.23912903       0.05259998      -0.07951997
C        3.09973885       1.22712955       0.03584998
N        4.33163846       0.96289961      -0.28829988
N        4.45136813      -0.34146986      -0.76795971
C        4.37348811      -1.29185945       0.33373988
C        3.14213882      -1.00356960      -0.48840980
H        0.34094987      -0.84487967       0.08859996
H        0.41595985       0.96572963       0.48919981
H        2.72044889       2.18897921       0.40559985
H        4.88284802      -2.23330901       0.16840993
H        4.46086840      -0.91004965       1.34390946
H        2.82272884      -1.70266937      -1.24931956
