18
Properties=species:S:1:pos:R:3 atomization_energy=-1786.0 smiles=C.C.C.C.C.C.N.H.H.H.H.H.H.H.H.H.H.H pbc="F F F"
C        0.84803968       0.03698999       0.01739999
C        2.16265904       0.11648996       0.26811991
C        3.02789888       1.33960949       0.20317992
C        2.32550909       2.68809901       0.09008996
C        3.38338870       3.67801850       0.55117978
C        4.33553850       2.85963885       1.41250950
N        3.78604858       1.50399939       1.44579943
H        0.32945987      -0.91362966       0.09702996
H        0.25627989       0.90123963      -0.26370990
H        2.67767899      -0.80429970       0.53668978
H        3.73012844       1.21939951      -0.63291978
H        1.45682947       2.75282879       0.75811967
H        1.98630926       2.90170877      -0.92871964
H        3.91711852       4.09442841      -0.31079988
H        2.93329888       4.50784845       1.10529960
H        5.33784771       2.85686875       0.96906961
H        4.41508845       3.26609883       2.42523898
H        4.53589809       0.81847971       1.50036935
