13
Properties=species:S:1:pos:R:3 atomization_energy=-1213.4 smiles=C.O.S.O.O.C.C.H.H.H.H.H.H pbc="F F F"
C        1.34020953      -0.34472985       0.00380000
O        2.69199904       0.06898997       0.04288998
S        2.97989891       1.66936934      -0.05054998
O        2.53732906       2.12852922      -1.35178952
O        2.48358907       2.27972913       1.16611951
C        4.71335812       1.63879941       0.01027999
C        5.42712806       1.21271954      -1.04111958
H        1.30726945      -1.43322943       0.09930996
H        0.88107962      -0.06448998      -0.94856965
H        0.77887972       0.09503996       0.83343967
H        5.17530802       1.97692922       0.92627965
H        4.95077812       0.87956967      -1.95972919
H        6.51132734       1.19521948      -1.00376958
