12
Properties=species:S:1:pos:R:3 atomization_energy=-1241.55 smiles=C.O.C.C.S.C.N.H.H.H.H.H pbc="F F F"
C        3.03155869      -1.06507964       0.53599978
O        2.25021899       0.09284996       0.26782988
C        3.01237874       1.20517950       0.15333994
C        2.40713901       2.41653910      -0.10708996
S        3.58939851       3.65375862      -0.20278992
C        4.80225796       2.48169911       0.10852996
N        4.38769840       1.24544955       0.27667990
H        2.35144899      -1.91869925       0.61483974
H        3.56421862      -0.97102960       1.48890947
H        3.73178853      -1.26808947      -0.28195990
H        1.35550951       2.62176894      -0.24098990
H        5.84850763       2.75257898       0.16205994
