12
Properties=species:S:1:pos:R:3 atomization_energy=-1306.18 smiles=C.C.C.N.C.C.S.H.H.H.H.H pbc="F F F"
C        2.85860883      -1.26134945       0.39263983
C        2.36132902      -0.04207998       0.14576994
C        3.11237888       1.17044951       0.08611996
N        2.56869889       2.34994913      -0.16083993
C        3.52285850       3.34647870      -0.15994993
C        4.80937824       2.93268874       0.08904996
S        4.83024806       1.24079947       0.33072988
H        2.19467911      -2.12079905       0.41535983
H        3.90901843      -1.45704937       0.57708979
H        1.29331944       0.06206997      -0.02819999
H        3.22015864       4.36903850      -0.34898987
H        5.71054753       3.52593870       0.13892994
