19
Properties=species:S:1:pos:R:3 atomization_energy=-1781.18 smiles=C.C.C.N.C.N.C.H.H.H.H.H.H.H.H.H.H.H.H pbc="F F F"
C        0.88090968      -0.10528996       0.13880995
C        2.39522897      -0.01294000      -0.04213998
C        2.83274891      -0.05168998      -1.51324934
N        2.34495903       1.10615954      -2.26249920
C        3.08854871       1.05952961       0.83580969
N        4.08292841       0.05168998       1.26130946
C        3.17057883      -1.02733959       0.84027968
H        0.60480976      -0.16236995       1.19772955
H        0.48205982      -0.99758961      -0.35523986
H        0.37576985       0.77151972      -0.27827990
H        2.46899902      -0.96841961      -1.99197927
H        3.92620850      -0.06687997      -1.59050939
H        1.33047951       1.05681957      -2.35027919
H        2.70487904       1.06344958      -3.21608879
H        2.48408894       1.43774943       1.66929932
H        3.51460853       1.92027922       0.31066986
H        4.94343780       0.09427996       0.71476973
H        3.65780853      -1.85485931       0.31449988
H        2.60101899      -1.45059941       1.67666929
