15
Properties=species:S:1:pos:R:3 atomization_energy=-1440.94 smiles=C.N.C.S.N.C.C.H.H.H.H.H.H.H.H pbc="F F F"
C        2.27603904      -1.12052956      -1.14489959
N        3.36615877      -0.62002975      -0.33064986
C        3.57770850       0.69235975      -0.00544000
S        2.64246894       1.98436921      -0.50921980
N        4.66129815       0.96502960       0.78853972
C        5.66759772       0.13926995       1.21639954
C        6.65377742       0.58858978       1.99653927
H        2.48099914      -2.16695927      -1.38394951
H        2.19391909      -0.54470975      -2.07000918
H        1.34528946      -1.04957956      -0.57575975
H        3.77871861      -1.29606947       0.29344990
H        4.73414820       1.94912926       1.03136957
H        5.66283775      -0.89553965       0.89073962
H        6.70295728       1.61757936       2.33686904
H        7.44838722      -0.07841997       2.31618898
