15
Properties=species:S:1:pos:R:3 atomization_energy=-1475.03 smiles=O.C.C.N.C.N.C.H.H.H.H.H.H.H.H pbc="F F F"
O        0.92337961      -0.00137000       0.16518993
C        2.35864901       0.02595999       0.10227996
C        2.81258891       1.30140944      -0.61157974
N        4.04766840       1.10320954      -1.33825951
C        4.12973839      -0.03757999      -2.07698917
N        3.57875870      -1.16350952      -1.82267926
C        2.86342886      -1.27855945      -0.54037981
H        0.63434974       0.75197969       0.70667974
H        2.70938895       0.04541998       1.14099955
H        2.94385894       2.10627915       0.12105995
H        2.03755926       1.64741930      -1.30628952
H        4.38215821       1.93790923      -1.81032928
H        4.73618805       0.08497996      -2.99052887
H        2.02829920      -1.97340921      -0.68494973
H        3.54904872      -1.77085925       0.16209993
