15
Properties=species:S:1:pos:R:3 atomization_energy=-1424.7 smiles=O.N.C.C.C.C.N.H.H.H.H.H.H.H.H pbc="F F F"
O        0.70160971       1.60216937      -0.24593990
N        1.97788922       1.32346949      -0.75122970
C        2.85082895       1.53264946       0.18142993
C        4.36079837       1.30233953      -0.08632997
C        5.13478817       2.39337913      -0.85855969
C        6.25029772       2.13918920       0.16400994
N        5.21487811       1.63571933       1.09491958
H        0.12987995       1.43796947      -1.01929962
H        2.55674898       1.87027928       1.19202951
H        4.55638840       0.29111987      -0.46932983
H        4.69216836       3.39437874      -0.80254966
H        5.37986793       2.16419927      -1.89888923
H        6.97591713       1.37632948      -0.14181994
H        6.78724753       3.02605888       0.51065979
H        5.50238787       0.83039965       1.64994930
