11
Properties=species:S:1:pos:R:3 atomization_energy=-1192.91 smiles=O.C.C.N.N.C.C.H.H.H.H pbc="F F F"
O        2.64386887      -1.03560962       0.10591996
C        2.09406922       0.05001998       0.01330999
C        2.91054894       1.29320955      -0.01364999
N        2.40300910       2.48104910      -0.10984996
N        3.49444852       3.40569857      -0.10341996
C        4.59416794       2.73031883      -0.00435000
C        4.38744808       1.25944952       0.06907997
H        1.00639962       0.20317992      -0.05500998
H        5.59759800       3.17520886       0.02490999
H        4.84141826       0.75621968      -0.78495971
H        4.74271838       0.86016969       1.01936958
