19
Properties=species:S:1:pos:R:3 atomization_energy=-1785.04 smiles=C.C.C.C.N.C.N.H.H.H.H.H.H.H.H.H.H.H.H pbc="F F F"
C        0.97246959      -0.01973999       0.05503998
C        2.48911891      -0.04460998       0.03158999
C        3.20348863       1.03701958       0.89110966
C        4.22444840      -0.03633999       1.33508947
N        5.37662799      -0.00814000       0.42212985
C        3.17211881      -1.10978958       0.93472966
N        3.74338845      -2.17126909       0.10103996
H        0.56544981      -0.89170964      -0.46809981
H        0.59456978       0.87852963      -0.44472983
H        0.58226977      -0.02683999       1.07872962
H        2.84683884      -0.03004999      -1.00796963
H        2.59589894       1.41172942       1.72513935
H        3.58907855       1.90151927       0.34177988
H        4.49888816      -0.01772999       2.39315910
H        5.14853820       0.16892994      -0.55260980
H        5.88068743      -0.89569963       0.44025982
H        2.56718893      -1.46612939       1.77622936
H        4.25811822      -1.83181932      -0.70799975
H        3.04100875      -2.81238881      -0.26639989
