14
Properties=species:S:1:pos:R:3 atomization_energy=-1352.2 smiles=O.N.C.C.C.O.C.H.H.H.H.H.H.H pbc="F F F"
O        0.71370975       1.67828938      -0.44583984
N        2.03171917       1.53039942      -0.88981962
C        2.80168895       1.37998943       0.13775995
C        4.31649809       1.20348951      -0.03555999
C        5.07967801       2.26919909      -0.82798969
O        6.06004752       2.40926893       0.22926991
C        5.22416793       1.63432937       1.11980953
H        0.22115991       1.79361927      -1.28056952
H        2.40591898       1.38163942       1.16817954
H        4.55286838       0.18779992      -0.38045986
H        4.55320802       3.21260864      -1.00356960
H        5.53334791       1.92043920      -1.75992927
H        5.78155759       0.82582967       1.60107942
H        4.76577793       2.27112918       1.88305923
