12
Properties=species:S:1:pos:R:3 atomization_energy=-1289.94 smiles=C.C.O.C.C.C.H.H.H.H.H.H pbc="F F F"
C        1.08069957      -0.01936999      -0.09044996
C        2.39246897       0.03198999       0.13556995
O        3.14209871      -1.10383961       0.40212985
C        4.49807818      -0.64192977       0.58951975
C        4.45752804       0.83203967       0.40800983
C        3.20884865       1.20252952       0.14230994
H        0.55957976      -0.97037959      -0.07066997
H        0.50110982       0.87254963      -0.29785989
H        5.14065789      -1.12350959      -0.15380994
H        4.82821830      -0.91655967       1.59599936
H        5.31167792       1.48656935       0.48259980
H        2.86099891       2.20759924      -0.03816998
