14
Properties=species:S:1:pos:R:3 atomization_energy=-1428.61 smiles=C.C.C.O.C.C.H.H.H.H.H.H.H.H pbc="F F F"
C        1.34242941      -1.27766948      -0.31519987
C        2.35586908      -0.17494993      -0.05759997
C        1.69954930       1.18466951       0.10349996
O        0.48286980       1.35383945       0.01846999
C        2.55178891       2.37689912       0.37242986
C        3.88303840       2.35967903       0.50961981
H        1.84926929      -2.23979923      -0.43987984
H        0.76232969      -1.07655957      -1.22243946
H        0.63877973      -1.36747947       0.51959980
H        3.05358872      -0.12885995      -0.90030966
H        2.91008895      -0.40930984       0.85719969
H        2.00077920       3.30992876       0.45569981
H        4.47647812       1.45492941       0.43679982
H        4.42029808       3.28322859       0.70549971
