17
Properties=species:S:1:pos:R:3 atomization_energy=-1790.97 smiles=C.C.C.C.C.C.C.H.H.H.H.H.H.H.H.H.H pbc="F F F"
C        1.00646958       0.02607999       0.08551997
C        2.49409892       0.00564000       0.01062000
C        3.26362876      -1.08585962      -0.10940996
C        4.72014836      -0.75242973      -0.13819996
C        4.74283799       0.77555967      -0.21958992
C        3.32181862       1.19400956       0.05707997
C        2.92565879       2.44501897       0.31614987
H        0.58772977      -0.98236961      -0.00100000
H        0.58701978       0.62840974      -0.72717970
H        0.67055972       0.44407983       1.03991956
H        2.89077879      -2.09976913      -0.15641994
H        5.21014790      -1.10977962       0.77406972
H        5.21904813      -1.20332954      -1.00145961
H        5.03745794       1.09298962      -1.22721950
H        5.45064785       1.20000949       0.49957981
H        3.64006864       3.26156872       0.33452987
H        1.88953921       2.68978887       0.52284979
