20
Properties=species:S:1:pos:R:3 atomization_energy=-1909.13 smiles=C.C.C.C.C.N.C.H.H.H.H.H.H.H.H.H.H.H.H.H pbc="F F F"
C        1.18662949       0.14279995       0.16879993
C        2.67860883      -0.06094998      -0.09110997
C        2.89012879      -0.81653966      -1.40297945
C        3.38704877       1.26821954      -0.13062995
C        3.84730855       1.92421925       1.15482958
N        4.80190823       1.32074949       0.23245990
C        5.56064763       2.29805898      -0.54263976
H        1.02484958       0.66278974       1.11975957
H        0.66245976      -0.81772965       0.21598991
H        0.72253970       0.74639971      -0.61997972
H        3.08274888      -0.67595973       0.72254973
H        2.49708904      -0.25210990      -2.25687902
H        2.38952906      -1.79056935      -1.37888951
H        3.95664848      -0.98983963      -1.58561934
H        3.03680869       1.91046921      -0.93212964
H        3.70179845       1.39641947       2.08985920
H        3.80573849       3.00432887       1.22921948
H        5.89863778       1.84070933      -1.47811941
H        6.45011733       2.60018907       0.01959999
H        5.00060799       3.20611868      -0.79661968
