16
Properties=species:S:1:pos:R:3 atomization_energy=-1662.1 smiles=C.C.C.C.C.C.N.H.H.H.H.H.H.H.H.H pbc="F F F"
C        2.17492915      -0.54748982       1.42605943
C        2.31703908       0.03255999       0.02584999
C        2.90020892       1.42584949       0.04496999
C        2.16716920       2.55994905       0.03289999
C        0.67676971       2.68092902       0.05370998
C        4.32890824       1.53697934       0.03917998
N        5.48607768       1.62312939       0.03509999
H        1.75510936      -1.55732934       1.37446943
H        1.50781943       0.06390998       2.04293921
H        3.14427885      -0.61183977       1.93158921
H        1.34287944       0.01906999      -0.47503980
H        2.95805888      -0.62599979      -0.57426980
H        2.68883885       3.51877855       0.02282999
H        0.16480994       1.72868927       0.20864992
H        0.32626987       3.11264887      -0.88855966
H        0.37669984       3.34927857       0.86717964
