16
Properties=species:S:1:pos:R:3 atomization_energy=-1607.62 smiles=C.C.C.C.C.N.C.H.H.H.H.H.H.H.H.H pbc="F F F"
C        3.36157870      -0.90108962      -2.49471890
C        3.49427870      -0.48653980      -1.37647950
C        3.65460847       0.02129999      -0.00535000
C        4.39314825       1.34825952      -0.00266000
C        3.62126870       2.59546896      -0.48560980
N        4.25067848       3.36220877       0.61616978
C        4.44340809       2.08976911       1.34959953
H        3.24235875      -1.27103948      -3.48796866
H        4.21444826      -0.71075974       0.58800980
H        2.66919889       0.12258995       0.46429983
H        5.39175777       1.26793946      -0.45889981
H        2.53003896       2.53369903      -0.39821985
H        3.87289847       2.94799894      -1.49009947
H        5.12994795       3.80196841       0.34089988
H        5.38853803       2.01426921       1.89517920
H        3.62216851       1.86227924       2.03959923
