12
Properties=species:S:1:pos:R:3 atomization_energy=-1236.4 smiles=C.C.C.O.C.O.H.H.H.H.H.H pbc="F F F"
C        0.94552963      -0.21258992       0.11341996
C        2.41565897       0.11227996      -0.08166997
C        2.65003888       1.59329942      -0.25772990
O        1.78910936       2.46294913      -0.22478991
C        4.07805842       2.02534920      -0.49108980
O        4.98979812       1.21442946      -0.52535980
H        0.80604968      -1.29117954       0.23657990
H        0.35290987       0.11297996      -0.74843968
H        0.54587982       0.28788987       1.00210961
H        2.78616881      -0.40656984      -0.97149962
H        2.98283883      -0.22755991       0.79079966
H        4.20811828       3.11058884      -0.62348978
