19
Properties=species:S:1:pos:R:3 atomization_energy=-1897.47 smiles=C.C.C.C.C.C.C.H.H.H.H.H.H.H.H.H.H.H.H pbc="F F F"
C        0.74013968       1.08088958      -0.40119986
C       -0.49550980       0.29451988      -0.05847997
C        0.84601964      -0.38190986      -0.06671997
C        1.56773940      -0.89937963       1.15480952
C        1.38487948      -0.24198990       2.55098902
C        1.57741933      -1.64650940       3.15810887
C        1.07231953      -2.21369909       1.81709933
H        0.88541965       1.37594947      -1.43384941
H        1.09609960       1.80516923       0.32157988
H       -1.18598958       0.05930998      -0.86103966
H       -0.98027962       0.49849979       0.88833963
H        1.04456958      -1.06236960      -0.89027962
H        2.63867892      -0.96906961       0.90037962
H        0.39285984       0.17843993       2.74235881
H        2.14085913       0.49701981       2.82828896
H        2.62277903      -1.89380929       3.37722879
H        0.96470964      -1.87555931       4.03343843
H        1.56279938      -3.13019877       1.47842940
H       -0.01389999      -2.35587917       1.77863925
