16
Properties=species:S:1:pos:R:3 atomization_energy=-1659.96 smiles=C.C.C.C.C.C.N.H.H.H.H.H.H.H.H.H pbc="F F F"
C        0.59584979       0.02862999      -0.18213992
C        2.08312914       0.03647999      -0.33133987
C        2.89534876       0.89935963       0.29831989
C        4.39085809       0.91071965       0.13730995
C        5.09960814       0.60532975       1.45615940
C        6.55778758       0.62750973       1.28069947
N        7.70847716       0.64649974       1.14228960
H        0.26449990      -0.94568961       0.18979993
H        0.12308996       0.20581992      -1.15292952
H        0.24542990       0.79675966       0.51442978
H        2.49899894      -0.71374975      -1.00114962
H        2.46911913       1.65448937       0.95708962
H        4.69134828       1.89996920      -0.23081991
H        4.70249829       0.18876993      -0.62882974
H        4.79143799      -0.37842986       1.83005931
H        4.81285789       1.34086950       2.21734906
