22
Properties=species:S:1:pos:R:3 atomization_energy=-2062.5 smiles=C.C.C.C.C.C.N.H.H.H.H.H.H.H.H.H.H.H.H.H.H.H pbc="F F F"
C        3.17585886      -1.26007947       1.73921931
C        2.74484881      -0.85652968       0.32797988
C        1.22389958      -0.97808963       0.19944993
C        3.18483883       0.57398977      -0.03643999
C        4.70458810       0.76658967      -0.04575998
C        5.07519812       2.18600901      -0.47635981
N        6.52401758       2.35232912      -0.47985980
H        4.26479844      -1.32743942       1.81860928
H        2.77254898      -2.24360917       2.00276921
H        2.82196882      -0.53912977       2.48338897
H        3.19993883      -1.55750939      -0.38354985
H        0.71194974      -0.29241988       0.88278967
H        0.89325965      -1.99599916       0.42999984
H        0.89988966      -0.74603969      -0.82031971
H        2.73233899       1.28841955       0.66363972
H        2.79372891       0.82052965      -1.03189959
H        5.16114820       0.03885999      -0.72798975
H        5.11275813       0.57770976       0.95362965
H        4.62867828       2.91659884       0.20741992
H        4.68975809       2.38976903      -1.48097946
H        6.89193724       2.18039918       0.45458984
H        6.75190753       3.32081863      -0.70242972
