14
Properties=species:S:1:pos:R:3 atomization_energy=-1512.57 smiles=C.C.C.C.C.C.N.H.H.H.H.H.H.H pbc="F F F"
C        1.27253946      -0.15299994      -1.06258963
C        2.12636926       0.05639998      -0.05199998
C        3.05768885       1.23317957       0.04235998
C        4.50532816       0.81020968       0.03069999
C        5.22690774       0.70552974       1.16129960
C        5.12896789       0.55901978      -1.23162949
N        5.64396791       0.36656985      -2.25371908
H        0.62256978      -1.02308957      -1.06849961
H        1.20233952       0.52704978      -1.90616923
H        2.15195918      -0.65870973       0.76879972
H        2.82648882       1.77580936       0.96830959
H        2.87549887       1.94688919      -0.77176972
H        4.78679813       0.90136964       2.13473909
H        6.27422730       0.41446983       1.14533952
