18
Properties=species:S:1:pos:R:3 atomization_energy=-1776.51 smiles=C.C.C.C.C.C.N.H.H.H.H.H.H.H.H.H.H.H pbc="F F F"
C        2.66964905      -0.99543962       1.40188951
C        2.42804894      -0.21863991       0.13711994
C        1.64368934      -0.68880970      -0.84557964
C        3.08793883       1.08235953       0.02671999
C        2.35511915       2.20143907      -0.12896995
C        4.60241817       1.06275958       0.07960997
N        5.23736788       2.22624904      -0.53899982
H        3.71923858      -1.29627954       1.48236943
H        2.06245918      -1.90712923       1.44016942
H        2.41061916      -0.39317985       2.27931909
H        1.15099957      -1.65255929      -0.76700968
H        1.47576945      -0.12555995      -1.75957928
H        1.27066955       2.17731923      -0.16021994
H        2.82606895       3.17648868      -0.20520992
H        4.97944799       0.16829993      -0.43218982
H        4.92405826       1.00270959       1.12514962
H        4.97638823       2.23939903      -1.52508936
H        6.24739742       2.09646914      -0.51901979
