18
Properties=species:S:1:pos:R:3 atomization_energy=-1770.84 smiles=C.C.C.C.C.C.N.H.H.H.H.H.H.H.H.H.H.H pbc="F F F"
C        1.01403959       0.58271980       1.13959949
C        2.47980914       0.57745977       0.85251964
C        3.05731868       1.35063951      -0.08110996
C        4.52713816       1.35798942      -0.40073985
C        5.18668816       2.68682903      -0.16229994
C        6.26652767       3.18295871      -1.09056951
N        4.94225790       3.79534850      -1.08722953
H        0.60023979      -0.41820985       0.98247963
H        0.46817983       1.28144953       0.49729980
H        0.83859966       0.86876964       2.18133912
H        3.08672890      -0.10232996       1.44585949
H        2.44706891       2.02814919      -0.67675975
H        4.64464833       1.05365956      -1.44810940
H        5.05234801       0.60412979       0.19743992
H        5.25169778       2.93799880       0.88983968
H        6.51139749       2.60324909      -1.97242928
H        7.07559705       3.77439845      -0.68132972
H        4.94598786       4.68513840      -0.58462976
