18
Properties=species:S:1:pos:R:3 atomization_energy=-1766.22 smiles=C.C.C.C.C.C.N.H.H.H.H.H.H.H.H.H.H.H pbc="F F F"
C        0.99396960      -0.03084999       0.01137000
C        2.51999896       0.00000000       0.00000000
C        3.05924877      -0.76315968      -1.20881951
C        3.00201878       1.36116943       0.00000000
C        3.39929870       2.48306901       0.00000000
C        3.88131852       3.84423844       0.00000000
N        2.76547891       4.77119800      -0.12049996
H        0.59590979       0.48953980       0.89129967
H        0.62367973      -1.06231964       0.03783999
H        0.57346978       0.45602983      -0.87747968
H        2.87535883      -0.50644981       0.90591962
H        2.73067890      -0.30860986      -2.15060921
H        2.71631898      -1.80320925      -1.19732947
H        4.15502829      -0.77157972      -1.21032958
H        4.57597839       4.00352835      -0.83153968
H        4.42559805       4.05855851       0.92529967
H        2.26116916       4.56542842      -0.98123961
H        3.12800878       5.71654797      -0.21669991
