16
Properties=species:S:1:pos:R:3 atomization_energy=-1551.9 smiles=C.C.O.C.C.C.H.H.H.H.H.H.H.H.H.H pbc="F F F"
C        1.26386948      -0.28830988       0.18656993
C        2.75082881      -0.46683982      -0.05882998
O        3.37845866       0.80832968       0.07266997
C        4.73200793       0.86413968      -0.10682996
C        5.59078759      -0.12714995      -0.38466985
C        7.05988741       0.08815997      -0.55541977
H        0.73515973      -1.24023954       0.08613997
H        0.83892964       0.42935983      -0.52288979
H        1.08460957       0.11126995       1.19017954
H        2.90634889      -0.86050964      -1.06996956
H        3.15736879      -1.16704960       0.68001974
H        5.05450797       1.89385925       0.01433999
H        5.25022770      -1.15085952      -0.49963980
H        7.33943714       1.14176954      -0.45533983
H        7.37346704      -0.25445991      -1.54626941
H        7.61050702      -0.48463981       0.19702993
