18
Properties=species:S:1:pos:R:3 atomization_energy=-1768.67 smiles=C.C.C.C.C.C.N.H.H.H.H.H.H.H.H.H.H.H pbc="F F F"
C        0.89681967       0.31035988       0.45387981
C        2.36058919       0.08130997       0.22523991
C        2.89156884      -1.15411952       0.22282992
C        3.26995874       1.23651955      -0.00474000
C        2.68439882       2.65487884      -0.19524992
C        3.84326848       3.09237885       0.71843970
N        3.83420852       1.72299932       1.28050947
H        0.73847972       0.92744965       1.34378948
H        0.35488985      -0.62914976       0.60628975
H        0.44747983       0.81116967      -0.40930984
H        2.27772915      -2.03386916       0.39048984
H        3.95299851      -1.32039951       0.06545998
H        4.04273836       1.01463963      -0.75646968
H        1.69827932       2.85132882       0.23979990
H        2.70818887       3.05084891      -1.21404958
H        4.76734793       3.34625867       0.18587993
H        3.61106846       3.88517843       1.43399942
H        4.74827825       1.33924953       1.50764936
