14
Properties=species:S:1:pos:R:3 atomization_energy=-1515.59 smiles=C.C.C.C.C.C.N.H.H.H.H.H.H.H pbc="F F F"
C        2.93124894      -1.14992956      -0.62390972
C        2.31652912      -0.00160000      -0.31643986
C        2.94925883       1.28031946      -0.03634998
C        2.17429908       2.33549914       0.27632988
C        4.45977834       1.41505943      -0.05321998
C        4.98445828       1.47690948      -1.42612945
N        5.42862791       1.53046944      -2.50016900
H        2.34382909      -2.04398916      -0.81640971
H        4.00660830      -1.25678944      -0.70694973
H        1.22665958      -0.02240999      -0.27175988
H        1.09012957       2.26889907       0.30835987
H        2.59940886       3.30951873       0.50205981
H        4.92273806       0.58881978       0.49921979
H        4.76434822       2.32594915       0.47844981
