16
Properties=species:S:1:pos:R:3 atomization_energy=-1658.24 smiles=C.C.C.C.C.C.N.H.H.H.H.H.H.H.H.H pbc="F F F"
C        1.78631933      -0.67805976      -1.02109962
C        2.87510877      -0.26518990      -0.04297998
C        2.97637889       1.22998947       0.06501997
C        4.07723835       1.92970922      -0.25653990
C        4.19388831       3.42569860      -0.14727993
C        4.51777819       4.02089833      -1.45217938
N        4.78235810       4.50247833      -2.47636911
H        1.72372932      -1.76947925      -1.07833952
H        1.99300916      -0.29732987      -2.02706922
H        0.80721968      -0.29995989      -0.70781971
H        3.82917855      -0.70213973      -0.36008986
H        2.64932907      -0.67484973       0.94810966
H        2.09099923       1.74610933       0.43292982
H        4.96001798       1.40231948      -0.61658979
H        4.98439823       3.66395860       0.57319978
H        3.26649877       3.86494853       0.23766991
