16
Properties=species:S:1:pos:R:3 atomization_energy=-1550.44 smiles=C.C.C.O.C.C.H.H.H.H.H.H.H.H.H.H pbc="F F F"
C        0.78672968       1.83420928      -1.27758949
C        0.42947982       0.55613980      -0.54021977
C        1.62972937      -0.02907999       0.19690993
O        1.19757954      -1.21136957       0.87279969
C        2.12699908      -1.88566921       1.61096942
C        3.42091869      -1.60471943       1.80126933
H       -0.09162997       2.23140921      -1.79575930
H        1.56761941       1.65219934      -2.02268925
H        1.14607961       2.60001900      -0.58282975
H        0.03566999      -0.18413993      -1.24709955
H       -0.38012985       0.75223972       0.17310994
H        2.00712924       0.70011969       0.92381962
H        2.41953907      -0.27790989      -0.52214979
H        1.65804939      -2.75167892       2.06722925
H        3.91254855      -0.74800971       1.35731948
H        4.02833831      -2.25168907       2.42637901
