14
Properties=species:S:1:pos:R:3 atomization_energy=-1398.32 smiles=C.C.C.O.C.C.H.H.H.H.H.H.H.H pbc="F F F"
C        0.99171962      -0.03735999      -0.04176998
C        2.51999896       0.00000000       0.00000000
C        3.03825884      -0.76098969       1.21966950
O        3.00925892      -0.67073975      -1.16129960
C        3.00201878       1.36116943       0.00000000
C        3.39929870       2.48306901       0.00000000
H        0.61029973       0.46569982      -0.93813961
H        0.54910978       0.44938982       0.83375969
H        0.62771974      -1.06972960      -0.08733996
H        2.69906886      -0.30711988       2.15681908
H        4.13432829      -0.78437966       1.23109947
H        2.70642885      -1.80494932       1.19898957
H        2.80597884      -0.10150997      -1.92297929
H        3.76087853       3.48565856       0.00181000
