16
Properties=species:S:1:pos:R:3 atomization_energy=-1628.79 smiles=C.C.C.C.C.C.N.H.H.H.H.H.H.H.H.H pbc="F F F"
C        0.99999962       0.00000000       0.00000000
C        2.44399905       0.00000000       0.00000000
C        3.63415853       0.00000000       0.00000000
C        5.04015789       0.00000000       0.00000000
C        5.74186790       1.11844959      -0.23343991
C        7.23215699       1.18557954      -0.23571991
N        7.69521715       1.70719935      -1.51245942
H        0.60599976       1.02087959       0.01154000
H        0.60591977      -0.52040978       0.87831969
H        0.60593976      -0.50039982      -0.88986964
H        5.54572778      -0.94063964       0.19598993
H        5.21950788       2.05454922      -0.42258985
H        7.68305680       0.20401992      -0.05446998
H        7.56139680       1.85399924       0.56630975
H        7.43459731       1.05341960      -2.25048924
H        8.71343635       1.73759934      -1.51004941
