18
Properties=species:S:1:pos:R:3 atomization_energy=-1801.73 smiles=C.C.C.C.C.C.N.H.H.H.H.H.H.H.H.H.H.H pbc="F F F"
C        0.97373963      -0.10077996       0.17099992
C        2.49653896      -0.02887999       0.00679000
C        2.88466885      -0.77214967      -1.28087951
C        3.02738892       1.43281939       0.00000000
C        2.54924894       2.24015905       1.21237952
C        4.47064826       1.46048940      -0.03684998
N        5.62106784       1.48253937      -0.06622998
H        0.66097971       0.25888990       1.15582956
H        0.62110973      -1.13433952       0.08392996
H        0.46449983       0.49554979      -0.59282977
H        2.94807893      -0.56995979       0.84996964
H        2.48232893      -0.26737988      -2.16515913
H        2.49477895      -1.79623936      -1.27012944
H        3.97139850      -0.84330967      -1.39347943
H        2.64372908       1.93543928      -0.89776963
H        2.80831895       1.73994930       2.15291905
H        1.46534943       2.39139909       1.19115947
H        3.01022888       3.23535882       1.23001950
