12
Properties=species:S:1:pos:R:3 atomization_energy=-1367.03 smiles=C.C.C.C.C.C.N.H.H.H.H.H pbc="F F F"
C        0.99999962       0.00000000       0.00000000
C        2.44399905       0.00000000       0.00000000
C        3.63415853       0.00000000       0.00000000
C        5.04015789       0.00000000       0.00000000
C        5.69717751       1.13798949       0.00000000
C        7.10317737       1.13798949       0.00000000
N        8.25418690       1.13798949       0.00000000
H        0.60599976       1.02087959       0.01166999
H        0.60593976      -0.52049980       0.87823963
H        0.60592973      -0.50029980      -0.88992963
H        5.54932804      -0.96027965      -0.00000000
H        5.19327805       2.09774922       0.00000000
