12
Properties=species:S:1:pos:R:3 atomization_energy=-1261.6 smiles=C.C.C.O.C.C.H.H.H.H.H.H pbc="F F F"
C        0.99705958      -0.03624999       0.09715996
C        2.51999896       0.00000000       0.00000000
C        2.94819879      -0.78623972      -1.22684946
O        3.75176862      -0.41251985      -2.07596925
C        3.00201878       1.36116943       0.00000000
C        3.39929870       2.48306901       0.00000000
H        0.64631977       0.47552980       1.00018963
H        0.62978974      -1.06789956       0.13029995
H        0.52972979       0.45062981      -0.76699972
H        2.93400894      -0.53547979       0.86295965
H        2.52416898      -1.80391931      -1.29461945
H        3.76273847       3.48492857      -0.01195999
