12
Properties=species:S:1:pos:R:3 atomization_energy=-1362.76 smiles=C.C.C.C.C.C.N.H.H.H.H.H pbc="F F F"
C        0.99999962       0.00000000       0.00000000
C        2.44399905       0.00000000       0.00000000
C        3.63415853       0.00000000       0.00000000
C        5.04015789       0.00000000       0.00000000
C        5.69785779      -1.17113951       0.00000000
C        5.77414763       1.22803958       0.00000000
N        6.38412765       2.21409903       0.00000000
H        0.60597976       1.02085959       0.01167999
H        0.60597976      -0.52055979       0.87824966
H        0.60597976      -0.50031980      -0.88992963
H        5.16876810      -2.11974910       0.00000000
H        6.78359731      -1.21402952       0.00000000
