16
Properties=species:S:1:pos:R:3 atomization_energy=-1615.41 smiles=C.C.C.C.C.C.H.H.H.H.H.H.H.H.H.H pbc="F F F"
C        0.87188965      -0.15331994      -0.26558991
C        2.35389913       0.02561999      -0.16226994
C        3.04485882       1.13778952       0.16523993
C        2.40753895       2.46898893       0.47230980
C        4.50394842       1.05479960       0.21853991
C        5.34877769       2.04219925       0.54327979
H        0.56909978      -1.02275959       0.32744986
H        0.59395977      -0.34125985      -1.30733947
H        0.29444988       0.69938970       0.09450996
H        2.90514880      -0.88890965      -0.38125985
H        1.32282946       2.47271914       0.34762987
H        2.79585884       3.24511874      -0.19693993
H        2.61294896       2.76283902       1.50755940
H        4.94540801       0.08919996      -0.02845999
H        5.01944805       3.03992877       0.80955967
H        6.41965741       1.86265925       0.55048978
