13
Properties=species:S:1:pos:R:3 atomization_energy=-1383.34 smiles=C.C.C.N.N.C.C.H.H.H.H.H.H pbc="F F F"
C        2.85353899      -1.18045949       0.35462985
C        2.29044917       0.00989000       0.11992996
C        3.05622886       1.26480954       0.01816999
N        2.51852913       2.42398893      -0.20930991
N        3.55551849       3.40474855      -0.24186990
C        4.67945793       2.80361878      -0.03310999
C        4.54037798       1.33975950       0.16619994
H        2.23298906      -2.06998925       0.41838983
H        3.92065847      -1.31691948       0.48890982
H        1.21653958       0.10725996      -0.00938000
H        5.65698770       3.30164877      -0.00128000
H        5.06550810       0.79162970      -0.61720976
H        4.87471791       1.05251960       1.16395955
