14
Properties=species:S:1:pos:R:3 atomization_energy=-1507.77 smiles=C.C.C.C.C.C.N.H.H.H.H.H.H.H pbc="F F F"
C        1.40901951      -0.30507988      -1.08295958
C        2.28247904      -0.01338000      -0.10751996
C        3.05503887       1.28344950       0.00000000
C        2.66109906       2.02039921       1.26190950
C        2.08520924       3.23145880       1.29287950
C        4.47485816       1.02029961       0.00000000
N        5.60659765       0.81054969       0.00000000
H        0.89166965      -1.26074953      -1.09629957
H        1.18783955       0.39125983      -1.88667929
H        2.45857900      -0.75833970       0.66791976
H        2.81929890       1.91246919      -0.86902967
H        2.86835891       1.52241944       2.20886922
H        1.85367929       3.78350861       0.38670986
H        1.83269933       3.70091857       2.23979923
