16
Properties=species:S:1:pos:R:3 atomization_energy=-1554.08 smiles=C.C.C.C.C.O.H.H.H.H.H.H.H.H.H.H pbc="F F F"
C        2.01150921      -0.59630980       1.07751957
C        2.86832888      -0.17140993      -0.10486996
C        3.12858889       1.30766952      -0.08974996
C        4.35415852       1.85015926      -0.01733999
C        4.62948826       3.31778864      -0.01170000
O        5.29767809       3.64107847       1.19637958
H        1.82661928      -1.67471940       1.04201959
H        1.04170960      -0.08738996       1.06792959
H        2.50690902      -0.36854986       2.02747925
H        2.35448908      -0.42866984      -1.03797957
H        3.80794841      -0.73613973      -0.09042996
H        2.25447910       1.95346923      -0.15457994
H        5.23020773       1.20684955       0.03587999
H        3.71585860       3.91707840      -0.07728997
H        5.27859781       3.58493855      -0.85067963
H        4.75140817       3.28829868       1.91945927
