18
Properties=species:S:1:pos:R:3 atomization_energy=-1770.03 smiles=C.C.C.C.C.C.N.H.H.H.H.H.H.H.H.H.H.H pbc="F F F"
C        2.84726881      -1.19018951      -1.26204954
C        2.63365905      -0.47117983       0.03965999
C        1.83362930      -0.97113961       0.99666960
C        3.34287868       0.85556969       0.20787992
C        4.84546817       0.76450971       0.18641992
C        5.62807760       1.21408957      -1.02243957
N        5.62981768       2.00217926       0.20556992
H        2.57075892      -0.54628979      -2.10279912
H        2.24391904      -2.10185919      -1.33001951
H        3.89663855      -1.48010942      -1.37341948
H        1.31607947      -1.91751922       0.87032968
H        1.66981938      -0.44526982       1.93319921
H        3.05153878       1.31537950       1.16138956
H        2.98786880       1.53942935      -0.57437975
H        5.22960769      -0.04400998       0.79751968
H        5.09861799       1.65321939      -1.85923928
H        6.54613744       0.69661973      -1.27072948
H        6.49932747       1.86714923       0.72618974
