16
Properties=species:S:1:pos:R:3 atomization_energy=-1658.01 smiles=C.C.C.C.C.C.N.H.H.H.H.H.H.H.H.H pbc="F F F"
C        0.77600971       0.09409996       0.07360997
C        2.25887900       0.04899998       0.26691988
C        3.09840881       0.99861962      -0.18020992
C        4.60760812       1.04569959      -0.03428999
C        5.22901774      -0.09972996       0.76774970
C        5.22791808       1.10802957      -1.37625946
N        5.72502782       1.16817954      -2.42329906
H        0.44757982      -0.78487972      -0.48938982
H        0.45498981       0.98773960      -0.47073983
H        0.27400989       0.08789996       1.04590959
H        2.63204892      -0.82231968       0.79949967
H        2.67012898       1.85246923      -0.70842972
H        4.84450830       1.97923919       0.49266981
H        5.05925785      -1.07128964       0.28878988
H        4.81901831      -0.13990994       1.78284927
H        6.31382766       0.03283999       0.85606968
