20
Properties=species:S:1:pos:R:3 atomization_energy=-1919.2 smiles=C.C.C.C.C.C.N.H.H.H.H.H.H.H.H.H.H.H.H.H pbc="F F F"
C        2.52986889      -0.87322966       1.29017943
C        2.47682911      -0.05788998       0.01664999
C        1.81483932      -0.57327977      -1.03899956
C        3.18137886       1.30645947       0.01700999
C        3.11905884       2.04597917      -1.33689945
C        2.57173897       2.23448916       1.08507954
N        4.60716805       1.10995953       0.31618986
H        3.56281869      -1.09207959       1.57576934
H        2.01901922      -1.83691932       1.18401951
H        2.04039924      -0.34329986       2.11233914
H        1.33627947      -1.54710942      -0.98753963
H        1.73364934      -0.06107997      -1.99102925
H        3.57992851       1.46180947      -2.14297921
H        3.64720861       3.00709871      -1.29383950
H        2.08391919       2.26640907      -1.62435938
H        2.70602891       1.84478928       2.10061923
H        1.49600945       2.36932918       0.92089964
H        3.03579886       3.22820876       1.06281963
H        4.71617818       0.82701967       1.28760944
H        5.09888799       1.99793921       0.23279990
