8
Properties=species:S:1:pos:R:3 atomization_energy=-981.05 smiles=C.C.C.C.C.C.H.H pbc="F F F"
C        0.82133969       0.00000000       0.00000000
C        2.02137914       0.00000000       0.00000000
C        3.55331867       0.00000000       0.00000000
C        4.75365795       0.00000000       0.00000000
C        6.28569777       0.00000000       0.00000000
C        7.48577716       0.00000000       0.00000000
H       -0.24405990       0.00000000       0.00000000
H        8.55080683       0.00000000       0.00000000
