20
Properties=species:S:1:pos:R:3 atomization_energy=-1913.58 smiles=C.C.C.C.C.C.N.H.H.H.H.H.H.H.H.H.H.H.H.H pbc="F F F"
C        1.24670957       0.01137000      -0.65090973
C        2.74752883       0.06879997      -0.88474965
C        3.48828861       0.59327974       0.34529987
C        4.98635783       0.63105978       0.07805997
C        5.52586780       1.75537936      -0.83628969
C        6.65770722       1.86075932       0.19987992
N        5.73024754       1.27892949       1.19371950
H        0.73864973      -0.37385986      -1.54026936
H        0.84581967       1.00690959      -0.43507984
H        1.00541963      -0.64647974       0.19015992
H        2.95356890       0.71022972      -1.75030926
H        3.11287874      -0.93361966      -1.14029958
H        3.28167877      -0.06377997       1.19964953
H        3.11152878       1.58986935       0.60608978
H        5.39276811      -0.35912986      -0.17373993
H        4.89287819       2.64865888      -0.89512968
H        5.82455786       1.45649941      -1.84399923
H        7.52582717       1.22803958      -0.01816999
H        6.99970742       2.87367881       0.42723984
H        6.16037745       0.63179975       1.85229929
