20
Properties=species:S:1:pos:R:3 atomization_energy=-1921.58 smiles=C.C.C.C.C.C.N.H.H.H.H.H.H.H.H.H.H.H.H.H pbc="F F F"
C        0.73017972       0.20457992      -0.12954995
C        2.16824918      -0.23528991      -0.08193997
C        2.39239907      -1.71582933      -0.21089992
C        3.16356882       0.66173973       0.06196998
C        4.64319793       0.37814987       0.08260996
C        5.27048788       0.77168967       1.42481948
N        6.71071748       0.51939979       1.42793943
H        0.62499973       1.29136955      -0.04341998
H        0.16752993      -0.24909990       0.69315970
H        0.27218988      -0.10065996      -1.07608961
H        1.47579948      -2.27332900       0.00946000
H        3.15183869      -2.07079923       0.49261982
H        2.70054903      -1.96610926      -1.23079958
H        2.90762897       1.71808934       0.14353994
H        5.11012783       0.95460964      -0.72610969
H        4.85355791      -0.67561972      -0.13019995
H        4.80456830       0.20727992       2.24095919
H        5.10059778       1.83654927       1.62152936
H        6.88042741      -0.47759980       1.29947948
H        7.08897717       0.75619969       2.34420910
