14
Properties=species:S:1:pos:R:3 atomization_energy=-1397.35 smiles=C.C.O.C.C.C.H.H.H.H.H.H.H.H pbc="F F F"
C        0.92551963       0.04991998       0.20550991
C        2.43461914       0.01539999      -0.00690000
O        2.68533901      -0.64701973      -1.25064947
C        3.02738892       1.43281939       0.00000000
C        4.47131845       1.41973942      -0.00560000
C        5.66141763       1.40895945      -0.01020999
H        0.66912975       0.50486980       1.16673948
H        0.51224980      -0.96462959       0.17821993
H        0.42979983       0.61272975      -0.59335979
H        2.89125898      -0.59462977       0.78128968
H        2.43523912      -0.04455998      -1.97156921
H        2.67576884       1.97132924       0.88809967
H        2.66897886       1.98661925      -0.87629965
H        6.72701757       1.39197945      -0.01696999
