16
Properties=species:S:1:pos:R:3 atomization_energy=-1550.87 smiles=C.C.C.C.O.C.H.H.H.H.H.H.H.H.H.H pbc="F F F"
C        2.14737911      -0.44544983       1.42936939
C        2.22243909       0.14395995       0.02836999
C        2.80276893       1.53732944       0.03633999
C        2.01272923       2.61784898      -0.07924997
O        4.17598843       1.54616937       0.14180995
C        4.84161810       2.80341893       0.10960996
H        1.73645930      -1.45996948       1.39091940
H        1.49889939       0.15619994       2.07643921
H        3.13763875      -0.49963980       1.89483931
H        1.21925946       0.14335994      -0.41362985
H        2.83861889      -0.50173979      -0.60868973
H        0.93565963       2.50987896      -0.16395993
H        2.39097896       3.63218858      -0.08563997
H        5.91705745       2.61733902       0.18213992
H        4.54770821       3.42328859       0.96252963
H        4.65397802       3.32302880      -0.83633965
