12
Properties=species:S:1:pos:R:3 atomization_energy=-1362.88 smiles=C.C.C.C.C.C.N.H.H.H.H.H pbc="F F F"
C        0.95194963       0.09664996      -0.00606000
C        2.45226896       0.00245000      -0.00211000
C        3.12057889      -1.16598955       0.00244000
C        2.47429899      -2.43316900       0.00251000
C        1.93380922      -3.50438861       0.00094000
C        3.20221865       1.21826956      -0.00227000
N        3.81333845       2.20370904      -0.00222000
H        0.61582976       1.13950954       0.01108999
H        0.52758980      -0.39514983       0.87578969
H        0.53565977      -0.36467986      -0.90795965
H        4.20915839      -1.17726952       0.00572000
H        1.45375948      -4.45594845      -0.00006000
