18
Properties=species:S:1:pos:R:3 atomization_energy=-1768.81 smiles=C.C.C.C.C.C.N.H.H.H.H.H.H.H.H.H.H.H pbc="F F F"
C        2.46432913       3.40804853      -0.52177978
C        2.86688883       2.14716917      -0.72358972
C        3.24116875       1.19534956       0.37822985
C        4.69130791       0.76189972       0.19305992
C        5.80029772       1.76368926       0.59972977
C        6.50072740       0.52984978       1.19033952
N        5.16797780      -0.10399996       1.31080953
H        2.19503919       4.04672847      -1.35795952
H        2.39042913       3.83061861       0.47592981
H        2.91299883       1.76666928      -1.74244927
H        2.57856908       0.32393987       0.32081986
H        3.08848866       1.65343929       1.36298949
H        4.87166823       0.29970989      -0.78906968
H        5.50218803       2.50612906       1.34944952
H        6.32220758       2.26537906      -0.21866992
H        7.17164695       0.01620999       0.49166982
H        7.02220729       0.68704976       2.13799921
H        5.15247810      -1.10303960       1.11211961
