16
Properties=species:S:1:pos:R:3 atomization_energy=-1554.75 smiles=C.C.O.C.C.C.H.H.H.H.H.H.H.H.H.H pbc="F F F"
C        0.89335964      -0.17384993       0.09453997
C        2.41009910      -0.04781998       0.04429998
O        2.92056877      -0.92930965      -0.95525965
C        2.91402885       1.38803942      -0.19015992
C        2.44529906       2.02174919      -1.47741944
C        3.26822875       2.41043899      -2.46085907
H        0.46568983       0.48095981       0.86053967
H        0.60950975      -1.20694948       0.32437988
H        0.43428982       0.06105998      -0.87134966
H        2.81452883      -0.39633986       1.00141961
H        2.67172902      -0.56175978      -1.82170930
H        4.01167840       1.37592942      -0.17013993
H        2.58721899       2.02565919       0.64046972
H        1.37764943       2.18922901      -1.59056932
H        4.34411826       2.28249922      -2.39047909
H        2.87874890       2.87700882      -3.36064861
