14
Properties=species:S:1:pos:R:3 atomization_energy=-1495.74 smiles=C.C.C.C.C.C.N.H.H.H.H.H.H.H pbc="F F F"
C        0.98225960       0.00138000      -0.00732000
C        2.51999896       0.00000000       0.00000000
C        3.01283874      -0.71382973       1.27044952
C        3.00333872      -0.75353973      -1.18563947
C        3.40280862      -1.35438941      -2.14562920
C        3.00201878       1.36116943       0.00000000
N        3.38622869       2.44615901       0.00000000
H        0.58566974       0.50234981      -0.89962963
H        0.57756978       0.52465980       0.86760967
H        0.58047979      -1.01923963      -0.00119000
H        2.66540888      -0.20434992       2.17748905
H        4.10916834      -0.74465969       1.31322951
H        2.65630906      -1.75027936       1.31184951
H        3.76314851      -1.88083921      -3.00069883
