16
Properties=species:S:1:pos:R:3 atomization_energy=-1541.73 smiles=C.C.O.C.C.C.H.H.H.H.H.H.H.H.H.H pbc="F F F"
C        1.27773950      -1.05351959      -0.22386992
C        2.32532917      -0.00553000      -0.53842980
O        3.60711847      -0.53366982      -0.20481992
C        4.67566791       0.39797986      -0.45622983
C        6.03561782      -0.22586991      -0.59380976
C        5.32921798       0.30643988      -1.80560930
H        0.27561989      -0.69142972      -0.47430981
H        1.30207950      -1.31696944       0.83887968
H        1.47102941      -1.97413920      -0.78460966
H        2.13790912       0.90027963       0.04731998
H        2.29786897       0.24378991      -1.60418941
H        4.63402820       1.36871943       0.02879999
H        6.11339742      -1.30070947      -0.47907981
H        6.88622749       0.32698986      -0.21386992
H        5.69990773       1.22098957      -2.25150916
H        4.93427818      -0.41094984      -2.51641913
