14
Properties=species:S:1:pos:R:3 atomization_energy=-1520.72 smiles=C.C.C.C.C.C.N.H.H.H.H.H.H.H pbc="F F F"
C        0.85897969       0.10267996      -0.06944998
C        2.33283906       0.05784998      -0.32046988
C        3.22090882       0.83768968       0.31744988
C        4.66381793       0.83988970       0.11674995
C        5.44451772       1.67503935       0.82427967
C        5.27323778      -0.04298998      -0.83295967
N        5.77638783      -0.75505972      -1.60057943
H        0.50929979      -0.87762969       0.26839990
H        0.33181986       0.35658986      -0.99412964
H        0.58926975       0.84200966       0.69121972
H        2.65238884      -0.66338972      -1.07081954
H        2.84479899       1.54211945       1.05935954
H        5.03773803       2.36505898       1.55671934
H        6.52334739       1.69214930       0.68933972
