14
Properties=species:S:1:pos:R:3 atomization_energy=-1456.42 smiles=C.C.C.C.C.C.H.H.H.H.H.H.H.H pbc="F F F"
C        1.00896962      -0.22607991      -0.00028000
C        2.49258897      -0.04325998      -0.00100000
C        3.13901875       1.13798949       0.00000000
C        2.44420899       2.47383899       0.00297000
C        4.54501836       1.13798949       0.00000000
C        5.73517759       1.13798949       0.00000000
H        0.76641967      -1.29276948      -0.01159000
H        0.55620975       0.22504991      -0.88909966
H        0.56052979       0.20551991       0.90089967
H        3.07284892      -0.96441959      -0.00203000
H        1.35409948       2.39120908       0.00008000
H        2.73177881       3.05197885      -0.88190967
H        2.72753889       3.04550882       0.89350965
H        6.80010734       1.13658956      -0.00001000
