16
Properties=species:S:1:pos:R:3 atomization_energy=-1498.71 smiles=C.C.C.O.C.O.H.H.H.H.H.H.H.H.H.H pbc="F F F"
C        1.15187957      -0.24830990       0.24520990
C        2.55546891       0.12917995      -0.22305992
C        2.87111891      -0.54385978      -1.56636937
O        4.23341852      -0.35269986      -1.92565930
C        2.69162887       1.65437935      -0.31233989
O        4.02236841       2.01710919      -0.66782975
H        0.93257961       0.20233992       1.21833946
H        1.05648959      -1.33374947       0.35084987
H        0.39152986       0.09148997      -0.46565983
H        3.28925880      -0.23018992       0.51064980
H        2.24138917      -0.14811994      -2.36957899
H        2.69925887      -1.62311942      -1.50462946
H        4.39899829       0.61329976      -1.88055925
H        2.45047892       2.13150924       0.64323975
H        2.01849916       2.06343923      -1.07275959
H        4.58995805       1.80247925       0.09575997
