16
Properties=species:S:1:pos:R:3 atomization_energy=-1660.31 smiles=C.C.C.C.C.C.N.H.H.H.H.H.H.H.H.H pbc="F F F"
C        0.84838966      -0.25009991       0.11528996
C        2.33319914      -0.06572997       0.15636993
C        3.03403885       1.07309961      -0.02411999
C        2.41531908       2.42964897      -0.24841990
C        4.55297840       1.06344958       0.03258999
C        5.14857807       1.37561942      -1.27789948
N        5.63272756       1.62862933      -2.30169911
H        0.60453977      -1.08603954      -0.54859976
H        0.30808987       0.62318976      -0.25487990
H        0.47619980      -0.49134980       1.11551952
H        2.87815895      -0.99274964       0.33728987
H        1.34160946       2.45234894      -0.04919998
H        2.57364887       2.75679897      -1.28083952
H        2.87085875       3.16724881       0.42137982
H        4.92419805       0.08750996       0.36839985
H        4.89041796       1.79069930       0.78062970
