12
Properties=species:S:1:pos:R:3 atomization_energy=-1248.18 smiles=C.C.C.C.O.O.H.H.H.H.H.H pbc="F F F"
C        0.90272964       0.04243998       0.04875998
C        2.39430897       0.00022000       0.15005995
C        3.18347876       1.03238962      -0.18987992
C        4.65382813       1.04729956      -0.06624998
O        5.23590790      -0.14971995      -0.26540990
O        5.27655796       2.07271922       0.14960995
H        0.55248976      -0.75744973      -0.61075973
H        0.54068980       0.99569958      -0.34919987
H        0.45799981      -0.10644995       1.03735960
H        2.81001891      -0.91554965       0.56284979
H        2.76492883       1.97787926      -0.52209980
H        4.62310832      -0.83335968      -0.58979977
