14
Properties=species:S:1:pos:R:3 atomization_energy=-1402.82 smiles=C.C.C.C.C.O.H.H.H.H.H.H.H.H pbc="F F F"
C        0.99999962       0.00000000       0.00000000
C        2.44399905       0.00000000       0.00000000
C        3.63415853       0.00000000       0.00000000
C        5.07815797       0.00000000       0.00000000
C        5.63975802      -0.73988969      -1.20380947
O        5.55724771       1.34148948      -0.02719999
H        0.60597976       1.02086963       0.01162999
H        0.60591977      -0.52052980       0.87823963
H        0.60600979      -0.50031980      -0.88994963
H        5.46052763      -0.46198983       0.91594965
H        5.32143810      -0.27156991      -2.14359919
H        5.31914794      -1.78753935      -1.21828950
H        6.73557715      -0.71040970      -1.19487946
H        5.07338790       1.79740929      -0.73682973
