17
Properties=species:S:1:pos:R:3 atomization_energy=-1779.66 smiles=C.C.C.C.C.C.C.H.H.H.H.H.H.H.H.H.H pbc="F F F"
C        1.06722963      -0.12777995      -0.04824998
C        2.52171910       0.17065994       0.05935998
C        3.11150884       1.34731947      -0.22609991
C        4.60174797       1.23793954      -0.02640999
C        4.83339816      -0.19392993       0.41250984
C        4.52456842      -1.36502946      -0.48555981
C        3.47816862      -0.87319963       0.47619980
H        0.90848967      -1.13311950      -0.45583982
H        0.56116977       0.58108974      -0.70826974
H        0.59625977      -0.07882997       0.93974960
H        2.60855890       2.24301922      -0.55850975
H        5.13891782       1.45331941      -0.95433965
H        4.92976801       1.93547928       0.75014973
H        5.52727783      -0.31263988       1.23102958
H        5.00490822      -2.31123900      -0.26641989
H        4.38364848      -1.18348949      -1.54580942
H        3.23785867      -1.45622942       1.35535950
