16
Properties=species:S:1:pos:R:3 atomization_energy=-1617.64 smiles=C.C.C.C.C.C.H.H.H.H.H.H.H.H.H.H pbc="F F F"
C        0.82564970       0.05814998      -0.14652994
C        2.31567902       0.01609999      -0.24322991
C        3.12871884       0.86422964       0.40369983
C        4.56703830       0.80513971       0.29551990
C        5.38155804       1.65275939       0.94178964
C        6.87180727       1.60946931       0.84411965
H        0.45086981      -0.89326962       0.24342991
H        0.39251985       0.21780991      -1.13881954
H        0.47456980       0.85867967       0.51177980
H        2.73052901      -0.75885970      -0.88322967
H        2.70557901       1.63731936       1.04251958
H        4.99062778       0.03168999      -0.34345987
H        4.96802799       2.42842895       1.58209932
H        7.22171704       0.80801969       0.18605992
H        7.30529723       1.45016944       1.83619929
H        7.24692695       2.56024907       0.45323983
