16
Properties=species:S:1:pos:R:3 atomization_energy=-1504.27 smiles=C.C.O.C.C.O.H.H.H.H.H.H.H.H.H.H pbc="F F F"
C        0.98441962      -0.13476995      -0.06468997
C        2.47884903       0.03734998       0.15932993
O        3.19121877      -0.64837974      -0.88272968
C        2.94591872       1.50533939       0.16171994
C        2.33917913       2.34032901       1.27718954
O        4.37058832       1.52821940       0.31533989
H        0.40004985       0.27678988       0.76326969
H        0.73476969      -1.19655949      -0.16723993
H        0.66801975       0.35310987      -0.99355962
H        2.77293884      -0.44737982       1.09683956
H        2.83690884      -0.34380985      -1.73688928
H        2.73289891       1.96785918      -0.80927971
H        2.54967891       1.89587929       2.25562922
H        1.25712946       2.44476892       1.16346952
H        2.78154888       3.34236873       1.28658952
H        4.70210819       0.74412973      -0.16709994
