16
Properties=species:S:1:pos:R:3 atomization_energy=-1659.36 smiles=C.C.C.C.C.C.N.H.H.H.H.H.H.H.H.H pbc="F F F"
C        0.66841976      -0.10748996      -0.08469997
C        2.11315921      -0.48697980       0.08846996
C        2.48606898      -1.76574929       0.26028989
C        3.12946877       0.63191973       0.01568999
C        3.09432887       1.54551936       1.24191956
C        4.12629835       2.58658892       1.14299953
N        4.93883780       3.40943863       1.06349954
H        0.33426987       0.52622980       0.74232973
H        0.01444000      -0.98559958      -0.11391995
H        0.52893978       0.43955982      -1.02267960
H        1.75795932      -2.57148892       0.29497988
H        3.52941860      -2.04869918       0.36736987
H        2.95165875       1.21554956      -0.89734963
H        4.13968831       0.21405992      -0.09480996
H        3.25426878       0.95776965       2.15360917
H        2.11209917       2.02241925       1.33566946
