20
Properties=species:S:1:pos:R:3 atomization_energy=-1922.87 smiles=C.C.C.C.C.C.N.H.H.H.H.H.H.H.H.H.H.H.H.H pbc="F F F"
C        0.87028969       0.94192962      -1.01465963
C        2.35986903       0.82749967      -1.07097952
C        3.17520886       1.22106956      -0.07720997
C        4.68565821       1.15145957      -0.03171999
C        5.11013792       0.25470990       1.14112950
C        5.34995809       0.64346975      -1.32193948
N        5.16527785       2.51225894       0.23627991
H        0.41702983      -0.04838998      -1.12054962
H        0.51449980       1.57295938      -1.83483923
H        0.52183981       1.37758950      -0.07292997
H        2.76308883       0.39790983      -1.98337919
H        2.71888897       1.64554940       0.81832970
H        4.70159797       0.61053976       2.09517922
H        6.20137775       0.21868991       1.24430952
H        4.75905835      -0.77424970       0.99719963
H        5.09242780       1.26838949      -2.18552908
H        5.04572785      -0.38520984      -1.54835935
H        6.44328722       0.64407976      -1.23352955
H        4.93563824       3.10359876      -0.56183977
H        6.18181754       2.50916890       0.29842988
