12
Properties=species:S:1:pos:R:3 atomization_energy=-1236.4 smiles=C.C.C.O.C.O.H.H.H.H.H.H pbc="F F F"
C        0.68945971      -0.22940991       0.16098994
C        2.17235915      -0.26597989      -0.05923997
C        2.97128887      -1.22885953       0.41709985
O        2.70946895       0.71435969      -0.91763964
C        2.66506899       1.99412926      -0.43888982
O        2.24895910       2.38816900       0.63922977
H        0.40705984       0.59722979       0.81840969
H        0.32668987      -1.15624957       0.61813973
H        0.16926993      -0.10705996      -0.79444969
H        2.58667901      -2.02580920       1.04509961
H        4.03284848      -1.23624955       0.19265993
H        3.09001880       2.65693888      -1.20933956
