14
Properties=species:S:1:pos:R:3 atomization_energy=-1398.16 smiles=C.C.C.C.C.O.H.H.H.H.H.H.H.H pbc="F F F"
C        1.00033964      -0.05415998       0.00380000
C        2.51999896       0.00000000       0.00000000
C        3.00201878       1.36116943       0.00000000
C        3.39929870       2.48306901       0.00000000
C        3.88131852       3.84423844       0.00000000
O        2.84466879       4.71698816      -0.42464982
H        0.65698972      -1.09298962       0.00344000
H        0.58488979       0.44237981      -0.87959963
H        0.58944979       0.44020983       0.89054968
H        2.89507877      -0.53265980      -0.88110965
H        2.89957885      -0.53429977       0.87817964
H        4.72628808       3.95712841      -0.68639975
H        4.20450843       4.15116837       0.99917961
H        3.23729875       5.59930780      -0.50291979
