16
Properties=species:S:1:pos:R:3 atomization_energy=-1615.96 smiles=C.C.C.C.C.C.N.H.H.H.H.H.H.H.H.H pbc="F F F"
C        1.00095962      -0.05370998       0.00277000
C        2.51999896       0.00000000       0.00000000
C        3.00201878       1.36116943       0.00000000
C        3.39929870       2.48306901       0.00000000
C        4.05851839       3.75217840       0.06406997
C        3.99572854       4.67370830      -1.12551953
N        3.26293863       4.97768824       0.09875996
H        0.65717973      -1.09293953       0.00139000
H        0.58527976       0.44313983      -0.88081966
H        0.58868977       0.43964984       0.88985968
H        2.89565888      -0.53274982      -0.88079966
H        2.89899874      -0.53413979       0.87851966
H        4.97104789       3.77055847       0.65114976
H        3.39348877       4.38748846      -1.98045922
H        4.86210790       5.28364796      -1.34465952
H        3.74094841       5.68825760       0.65129971
