12
Properties=species:S:1:pos:R:3 atomization_energy=-1232.07 smiles=C.C.C.O.C.O.H.H.H.H.H.H pbc="F F F"
C        0.90336962       0.06095997      -0.24901990
C        2.42364904       0.13742995      -0.27608989
C        2.95026892      -0.71936973      -1.39911941
O        3.89457852      -0.40095986      -2.11505914
C        2.91182877       1.56316943      -0.37269986
O        2.21473920       2.54374888      -0.12423995
H        0.49493981       0.62644976       0.59510977
H        0.56194978      -0.97560960      -0.15602993
H        0.47023983       0.47163983      -1.16806952
H        2.82478887      -0.28200989       0.65489972
H        2.49130914      -1.71813930      -1.49709939
H        3.98735845       1.69021935      -0.58989976
