17
Properties=species:S:1:pos:R:3 atomization_energy=-1789.07 smiles=C.C.C.C.C.C.C.H.H.H.H.H.H.H.H.H.H pbc="F F F"
C        0.89985963       0.05270998       0.08141997
C        2.42359908       0.01444999       0.10343996
C        3.01877887       1.17116954      -0.66067975
C        3.78838845       0.71327972      -1.66044931
C        3.78156844      -0.72745972      -1.64924933
C        3.00545881      -1.16538952      -0.64378977
C        2.74542892      -2.57268900      -0.24906991
H        0.52785980       0.97207961       0.54753978
H        0.48013983      -0.79357966       0.63522974
H        0.50401979       0.01279999      -0.94040964
H        2.78860886       0.02677999       1.13669958
H        2.85017895       2.21169911      -0.42643983
H        4.34167822       1.31301945      -2.36715913
H        4.33682841      -1.33762944      -2.34506905
H        3.29877875      -3.27461879      -0.88024964
H        1.68067933      -2.80928892      -0.33899985
H        3.05242875      -2.73965886       0.78862967
