12
Properties=species:S:1:pos:R:3 atomization_energy=-1358.99 smiles=C.C.C.C.C.C.N.H.H.H.H.H pbc="F F F"
C        0.99058962      -0.20529991       0.00478000
C        2.47818893      -0.03718998       0.00473000
C        3.13901875       1.13798949       0.00000000
C        2.43601907       2.35561902       0.00000000
C        1.84093933       3.38632861       0.00000000
C        4.54501836       1.13798949       0.00000000
N        5.69602789       1.13798949       0.00000000
H        0.73929974      -1.27082954      -0.03216999
H        0.53775980       0.26900988      -0.87165966
H        0.54802980       0.20651992       0.91721964
H        3.04821886      -0.96608965       0.00881999
H        1.31120948       4.31095841      -0.00000000
