12
Properties=species:S:1:pos:R:3 atomization_energy=-1219.91 smiles=C.C.O.C.C.O.H.H.H.H.H.H pbc="F F F"
C        0.96824960      -0.11164996       0.07263997
C        2.36489900       0.08128996      -0.44491984
O        2.83270879      -0.61994976      -1.33759941
C        3.17842886       1.19486950       0.10573996
C        2.59500896       2.36859919       0.85018967
O        3.19781875       1.27029951       1.54330944
H        0.32728988       0.69681971      -0.28889989
H        0.96297960      -0.13988994       1.16515951
H        0.57397980      -1.06379956      -0.29357988
H        4.12031835       1.35703952      -0.40607985
H        1.52278936       2.48416893       0.93073961
H        3.13943888       3.30519882       0.83139970
