12
Properties=species:S:1:pos:R:3 atomization_energy=-1268.01 smiles=C.C.C.C.C.O.H.H.H.H.H.H pbc="F F F"
C        1.00096958      -0.05421998       0.00304000
C        2.51999896       0.00000000       0.00000000
C        3.00201878       1.36116943       0.00000000
C        3.39929870       2.48306901       0.00000000
C        3.89675841       3.83653855       0.00000000
O        3.13200874       4.78962828       0.00001000
H        0.65761973      -1.09362953       0.00217000
H        0.58495974       0.44200983      -0.88069968
H        0.58864977       0.43929982       0.89001965
H        2.89561876      -0.53274982      -0.88082963
H        2.89922886      -0.53413979       0.87843967
H        4.99326818       3.94062847      -0.00000000
