18
Properties=species:S:1:pos:R:3 atomization_energy=-1769.32 smiles=C.C.C.C.C.C.N.H.H.H.H.H.H.H.H.H.H.H pbc="F F F"
C        0.99999962       0.00000000       0.00000000
C        2.44399905       0.00000000       0.00000000
C        3.63415853       0.00000000       0.00000000
C        5.07815797       0.00000000       0.00000000
C        5.60437764      -0.69304975       1.26167950
C        5.60989764      -0.71726970      -1.24685945
N        5.55610768       1.38389943       0.00170000
H        0.60600979       1.02086963       0.01166999
H        0.60601976      -0.52055979       0.87825963
H        0.60602978      -0.50032979      -0.88993967
H        5.25396775      -0.19318992       2.17436923
H        6.70082761      -0.70543972       1.28903953
H        5.26132775      -1.73472932       1.31482954
H        5.26075798      -0.23745991      -2.17016917
H        5.27210784      -1.76080927      -1.27838951
H        6.70653736      -0.72506971      -1.26985945
H        5.21481805       1.85206929      -0.83675965
H        6.57150733       1.39523944      -0.05644998
