18
Properties=species:S:1:pos:R:3 atomization_energy=-1768.68 smiles=C.C.C.C.C.C.N.H.H.H.H.H.H.H.H.H.H.H pbc="F F F"
C        2.68890900      -1.06180955       0.92111961
C        3.17576878      -0.28568989      -0.29192988
C        3.20412879       1.19019948      -0.02146999
C        4.31642844       1.94152929      -0.07294997
C        4.38255841       3.38016870       0.17991993
C        4.47860830       3.86862852       1.60167934
N        5.63671793       3.89681847       0.71727973
H        2.67393894      -2.13495912       0.70284973
H        1.67355930      -0.76159970       1.20399948
H        3.34444869      -0.90131961       1.78456929
H        2.50660900      -0.47552980      -1.13805951
H        4.16761835      -0.65204977      -0.57925977
H        2.25471907       1.66208934       0.22375992
H        5.26033810       1.45960940      -0.32496989
H        3.88068845       4.00799839      -0.54846980
H        4.51426826       3.14320871       2.40501917
H        4.03207837       4.82142807       1.85245926
H        5.81024765       4.84129815       0.37008984
