15
Properties=species:S:1:pos:R:3 atomization_energy=-1525.09 smiles=C.C.C.N.N.C.C.H.H.H.H.H.H.H.H pbc="F F F"
C        2.38118901      -0.48747979      -1.40421941
C        2.44884911       0.03242999       0.01892999
C        2.99855881       1.42135939       0.04484998
N        2.26880899       2.49229904       0.11376996
N        3.14103866       3.62291869       0.09867996
C        4.35594806       3.19123870       0.01176000
C        4.45498808       1.71117937      -0.04207998
H        1.95784920      -1.49643942      -1.42208938
H        3.37645868      -0.52693980      -1.85905924
H        1.75584932       0.15867993      -2.02943924
H        3.08863880      -0.61218976       0.63005973
H        1.44822938       0.03609998       0.46381983
H        5.24608795       3.83277856      -0.02148999
H        4.88743792       1.38094942      -0.98665962
H        5.00273817       1.31991944       0.81552970
