13
Properties=species:S:1:pos:R:3 atomization_energy=-1255.97 smiles=O.C.C.C.C.H.H.H.H.H.H.H.H pbc="F F F"
O        0.93707962       0.00606000       0.02525999
C        2.37369906       0.01946999       0.00846000
C        3.05033870       1.05772961       0.93514960
C        4.12136831      -0.00586000       1.23822947
C        3.07636869      -1.07020953       0.85202967
H        0.68824972      -0.78638967      -0.48176982
H        2.74775895       0.06762997      -1.02241957
H        2.44549916       1.34281952       1.80370925
H        3.41646857       1.96302918       0.44376984
H        4.98262788       0.03075999       0.56143976
H        4.47856843      -0.04179998       2.27010900
H        3.46508852      -1.92495921       0.29247987
H        2.48024896      -1.43677947       1.69555931
