13
Properties=species:S:1:pos:R:3 atomization_energy=-1254.62 smiles=C.C.O.C.C.H.H.H.H.H.H.H.H pbc="F F F"
C        0.95777962      -1.09371961      -0.01714999
C        2.06316924      -0.05428998       0.02018999
O        1.45703940       1.23494955       0.11901996
C        2.28987916       2.31436917       0.16941994
C        3.62628858       2.35419915       0.14171994
H        1.37333949      -2.10222923      -0.09545996
H        0.29187989      -0.91827962      -0.86865969
H        0.34190986      -1.03429958       0.88653963
H        2.65593889      -0.12309995      -0.89875965
H        2.70314905      -0.23844990       0.89080964
H        1.69406930       3.21938878       0.24129990
H        4.24324834       1.46652946       0.07084997
H        4.14066836       3.30815866       0.19152993
