20
Properties=species:S:1:pos:R:3 atomization_energy=-1921.19 smiles=C.C.C.C.C.C.N.H.H.H.H.H.H.H.H.H.H.H.H.H pbc="F F F"
C        1.75959934      -0.64007974      -1.03058961
C        2.79613892      -0.29341987       0.02709999
C        3.00765888       1.19084949       0.11795995
C        4.19072837       1.79002936      -0.10647996
C        4.50436829       3.25997878      -0.04571998
C        3.32795859       4.18758836       0.26334990
N        5.55951769       3.45105865       0.94853963
H        1.61019930      -1.72369929      -1.07292953
H        2.07867916      -0.30283987      -2.02259917
H        0.79348970      -0.17491994      -0.80679967
H        3.73343852      -0.81318971      -0.20290993
H        2.45755908      -0.66062973       1.00263957
H        2.13633912       1.77812929       0.39447983
H        5.04230825       1.16552956      -0.37676986
H        4.90891788       3.54643860      -1.02399960
H        2.89008892       3.98039840       1.24665948
H        2.53914888       4.08317847      -0.49000980
H        3.64712861       5.23619808       0.25640989
H        5.18614817       3.22135873       1.86900930
H        5.80875788       4.43761810       0.98850959
