16
Properties=species:S:1:pos:R:3 atomization_energy=-1565.84 smiles=C.C.C.C.C.O.H.H.H.H.H.H.H.H.H.H pbc="F F F"
C        0.99810960      -0.46718981       0.18964994
C        2.39039910      -0.13829994      -0.35011987
C        2.87708881      -1.26921954      -1.25896946
C        2.36322908       1.20373958      -1.08977959
C        3.75454856       1.67705939      -1.42420947
O        4.10071827       2.00385915      -2.55518907
H        0.65267971       0.31249987       0.87706964
H        1.00659960      -1.41514939       0.73851972
H        0.26651991      -0.55221976      -0.62166978
H        3.07893868      -0.06790997       0.50144980
H        2.23875911      -1.37171952      -2.14344905
H        2.87054889      -2.22597904      -0.72535969
H        3.90208841      -1.08989957      -1.59972932
H        1.91002927       1.97794928      -0.46024982
H        1.77723931       1.13505955      -2.01310924
H        4.45151802       1.76452927      -0.57309980
