16
Properties=species:S:1:pos:R:3 atomization_energy=-1501.14 smiles=C.C.C.O.C.O.H.H.H.H.H.H.H.H.H.H pbc="F F F"
C        1.24313946      -0.37893985      -0.04209998
C        2.74848894      -0.31366986       0.17818993
C        3.33490880       1.03891957      -0.22021991
O        2.75986883       2.06900919       0.59029977
C        4.85741808       1.06902963      -0.04307998
O        5.34418778       2.36126897      -0.41475985
H        0.86459968      -1.36938949       0.23149991
H        0.99266959      -0.19868992      -1.09264960
H        0.71734969       0.36148985       0.56935981
H        3.22810885      -1.11164952      -0.39937985
H        2.94654879      -0.50700979       1.23925949
H        3.08262877       1.27780952      -1.25989955
H        3.38549870       2.81996884       0.55297978
H        5.35593784       0.31209989      -0.65555976
H        5.12961790       0.91521966       1.00575958
H        5.25174774       2.43908894      -1.38081947
