18
Properties=species:S:1:pos:R:3 atomization_energy=-1780.5 smiles=C.C.C.C.C.C.N.H.H.H.H.H.H.H.H.H.H.H pbc="F F F"
C        1.02711962       0.08175997       0.15649994
C        2.52231889      -0.12677995       0.22704991
C        3.01020869      -1.46174942       0.54958978
C        2.25625904      -2.54344911       0.78945972
C        3.33979873       0.92639964       0.01056000
C        4.83440799       0.98310964       0.01511999
N        5.29181794       1.81172934      -1.09471960
H        0.76298973       1.11401954      -0.09826996
H        0.55883980      -0.14095995       1.12166959
H        0.58199977      -0.56018977      -0.61154978
H        4.08585849      -1.60103943       0.61555977
H        1.17283959      -2.52961908       0.76151971
H        2.72535900      -3.49310864       1.02988959
H        2.87564876       1.89427926      -0.18427993
H        5.30091802       0.00010000      -0.07203998
H        5.16915821       1.43504949       0.95396960
H        5.06377811       1.33830947      -1.96898925
H        6.30833744       1.87049931      -1.06399954
