14
Properties=species:S:1:pos:R:3 atomization_energy=-1395.64 smiles=C.C.C.O.C.C.H.H.H.H.H.H.H.H pbc="F F F"
C        0.94433963      -0.01524999      -0.04613998
C        2.46571897       0.00737000       0.02111999
C        3.02738892       1.43281939       0.00000000
O        2.56203911       2.14504909       1.14310954
C        4.47137800       1.42910949      -0.00268000
C        5.66152764       1.42605943      -0.00490000
H        0.58307975      -1.04851958      -0.05650998
H        0.58517978       0.47845980      -0.95489964
H        0.49915980       0.48737981       0.81834969
H        2.86800892      -0.56818975      -0.82141968
H        2.77490878      -0.50569981       0.94062961
H        2.65286903       1.96077927      -0.88374967
H        3.01682885       1.76685929       1.91478925
H        6.72732744       1.42945947      -0.00857000
