18
Properties=species:S:1:pos:R:3 atomization_energy=-1762.65 smiles=C.C.C.C.C.N.C.H.H.H.H.H.H.H.H.H.H.H pbc="F F F"
C        0.81855970       0.31317987       0.23343991
C        2.29413901       0.07340997       0.13171995
C        2.81652881      -1.16357954       0.10032996
C        3.23605879       1.22973953       0.03742999
C        2.68438898       2.67525888       0.10012996
N        3.86262859       3.04831878       0.92324966
C        3.95706836       1.62666934       1.34716946
H        0.47009982       0.92661961      -0.60369976
H        0.57702979       0.82399971       1.17123956
H        0.25016990      -0.62283978       0.21320991
H        2.18608925      -2.04641923       0.15708994
H        3.88617841      -1.33306943       0.01711999
H        3.93274842       1.10704952      -0.80717968
H        1.73970933       2.82293878       0.63413974
H        2.62079898       3.19446880      -0.86094964
H        4.66140817       3.34877870       0.36311985
H        4.97965793       1.25273953       1.45689949
H        3.40747877       1.41750944       2.27288919
