20
Properties=species:S:1:pos:R:3 atomization_energy=-1921.59 smiles=C.C.C.C.C.C.N.H.H.H.H.H.H.H.H.H.H.H.H.H pbc="F F F"
C        0.53720977      -0.41013982       0.22979991
C        1.98403917      -0.02928999       0.23101991
C        2.53175911       1.18506959       0.02131999
C        1.75382929       2.44328899      -0.26214989
C        4.04450846       1.35069944       0.01924999
C        4.56425811       2.20002904       1.18705959
N        6.02489777       2.28352899       1.16794954
H        0.38756983      -1.26557953      -0.43690984
H       -0.12930995       0.38462986      -0.10773996
H        0.23212992      -0.70831970       1.23724955
H        2.65097906      -0.87043963       0.42153984
H        0.67839971       2.28092922      -0.35434986
H        2.09336912       2.89216889      -1.20147957
H        1.89946921       3.17139866       0.54181981
H        4.34690804       1.80220926      -0.93478966
H        4.52994812       0.36595987       0.05133998
H        4.24127814       1.77108925       2.14224922
H        4.16362824       3.21707869       1.12821960
H        6.41981739       1.35079949       1.28394950
H        6.33932776       2.82654888       1.97137920
