14
Properties=species:S:1:pos:R:3 atomization_energy=-1423.14 smiles=C.C.O.C.C.C.H.H.H.H.H.H.H.H pbc="F F F"
C        0.91564964       0.29559989      -0.27136990
C        2.37373918       0.14859994      -0.59367974
O        2.82341896      -0.76398972      -1.27702944
C        3.28217864       1.18328951      -0.03430998
C        4.13828838       2.00313925      -0.97099963
C        3.01219883       2.65689901      -0.22598991
H        0.45220981       0.98593960      -0.98002962
H        0.78950968       0.66801975       0.74870974
H        0.42764985      -0.68037975      -0.34277987
H        3.75559851       0.87993965       0.89437962
H        4.02580844       1.84437924      -2.03831915
H        5.15450785       2.22206917      -0.66343975
H        3.26514880       3.32723869       0.58767975
H        2.14781918       2.96779887      -0.80108967
