14
Properties=species:S:1:pos:R:3 atomization_energy=-1517.56 smiles=C.C.C.C.C.C.N.H.H.H.H.H.H.H pbc="F F F"
C        2.05883924      -1.22976956      -0.49096982
C        3.01982882      -0.47972982       0.05994998
C        3.30547865       0.86770966      -0.36996986
C        4.26844816       1.61875939       0.18712993
C        4.59285834       3.02301879      -0.24189990
C        4.42577821       3.96269838       0.87726967
N        4.30539854       4.71355797       1.75466930
H        1.87651930      -2.23899908      -0.13431995
H        1.43136949      -0.86822965      -1.29938952
H        3.61464853      -0.89709963       0.87018963
H        2.69883899       1.27019947      -1.17952953
H        4.87478805       1.21165949       0.99521959
H        3.96076854       3.33463881      -1.08127956
H        5.62977781       3.05082872      -0.59533977
