16
Properties=species:S:1:pos:R:3 atomization_energy=-1664.28 smiles=C.C.C.C.C.C.N.H.H.H.H.H.H.H.H.H pbc="F F F"
C        0.95572961      -0.17568993      -0.00589000
C        2.45657902      -0.03576998      -0.00481000
C        3.17290886      -1.37195949      -0.00943000
C        3.13901875       1.13798949       0.00000000
C        2.50883910       2.50782902       0.00328000
C        4.54501836       1.13798949       0.00000000
N        5.69602789       1.13798949       0.00000000
H        0.41337985       0.76990972       0.00598000
H        0.63340975      -0.74031972       0.87599963
H        0.63298974      -0.72063971      -0.89983963
H        2.46288907      -2.20665905       0.00749000
H        3.81071850      -1.47675947       0.87495964
H        3.78019853      -1.48484946      -0.91402967
H        1.41863938       2.50448891      -0.01266999
H        2.83840895       3.07557889      -0.87469968
H        2.81491893       3.06026869       0.89922962
