20
Properties=species:S:1:pos:R:3 atomization_energy=-1912.58 smiles=C.C.C.C.C.C.N.H.H.H.H.H.H.H.H.H.H.H.H.H pbc="F F F"
C        0.80212971      -0.65762976       0.19779992
C        2.28674899      -0.50104979      -0.13747994
C        2.80671892      -1.77779924      -0.80031968
C        2.49536890       0.73895972      -1.02418961
C        3.94537835       1.02723960      -1.28484944
C        4.57650829       0.66727972      -2.60684885
N        4.28111822       2.05462921      -2.26969921
H        0.42085983       0.23394990       0.70575974
H        0.64074974      -1.51403940       0.86088965
H        0.20516991      -0.81412971      -0.70763973
H        2.83392881      -0.36037985       0.80349968
H        2.33310905      -1.94207925      -1.77381934
H        2.60138891      -2.65177895      -0.17241994
H        3.88983848      -1.73363938      -0.95055960
H        2.06418916       1.61329932      -0.51904981
H        1.94555928       0.62065976      -1.96724917
H        4.55232839       1.02015963      -0.38751984
H        3.95856847       0.22915991      -3.38100871
H        5.61986775       0.37939985      -2.62384891
H        5.13034814       2.55381891      -1.99891926
