14
Properties=species:S:1:pos:R:3 atomization_energy=-1503.27 smiles=C.C.C.C.C.C.N.H.H.H.H.H.H.H pbc="F F F"
C        0.99999962       0.00000000       0.00000000
C        2.44399905       0.00000000       0.00000000
C        3.63415853       0.00000000       0.00000000
C        5.07815797       0.00000000       0.00000000
C        5.61875800      -0.76296967      -1.20704953
C        5.56017779       1.36116943       0.00000000
N        5.94438745       2.44615901       0.00000000
H        0.60601976       1.02087959       0.01165000
H        0.60593976      -0.52052980       0.87823963
H        0.60601976      -0.50029980      -0.88995967
H        5.43646785      -0.50567979       0.90495962
H        5.29691806      -0.30912989      -2.15299904
H        5.26939780      -1.80223929      -1.20432952
H        6.71506717      -0.77737968      -1.20462955
