18
Properties=species:S:1:pos:R:3 atomization_energy=-1783.14 smiles=C.C.C.C.C.C.N.H.H.H.H.H.H.H.H.H.H.H pbc="F F F"
C        3.98897842      -1.53449942      -0.26725990
C        2.99166891      -0.48337982       0.14105994
C        1.75823928      -0.83008966       0.54444979
C        3.36949863       0.92258963       0.09736997
C        4.56493839       1.40966938      -0.27307989
C        4.89907797       2.86541899      -0.30683989
N        6.04398764       3.12123874       0.55293979
H        4.87669820      -1.49762941       0.37339986
H        4.29696815      -1.39328943      -1.30875947
H        3.57361872      -2.54540897      -0.18680993
H        1.44934948      -1.87058926       0.58708980
H        1.01835962      -0.09457996       0.84530965
H        2.59804905       1.63084934       0.39942984
H        5.36567782       0.74434970      -0.58570980
H        4.05340843       3.48433862       0.01220000
H        5.14805776       3.15116875      -1.33437941
H        5.78632766       2.90033887       1.51399940
H        6.25251773       4.11765828       0.54005979
