20
Properties=species:S:1:pos:R:3 atomization_energy=-1915.1 smiles=C.C.C.C.C.C.N.H.H.H.H.H.H.H.H.H.H.H.H.H pbc="F F F"
C        0.83325969      -0.06820997      -0.02626999
C        2.32065903      -0.22768991      -0.34429985
C        2.51982888      -0.61868974      -1.80932929
C        3.11510885       1.02450956       0.02835999
C        2.79595902       2.29517912      -0.72149972
C        3.57648848       1.15728955       1.46793949
N        4.52059824       0.80774970       0.41639985
H        0.68579971       0.22422991       1.01877963
H        0.30032987      -1.01075959      -0.19135992
H        0.36287985       0.69388970      -0.65617974
H        2.68761882      -1.06778955       0.26199990
H        2.09491920       0.12649995      -2.48976891
H        2.03402914      -1.57711943      -2.02177921
H        3.58410863      -0.72042971      -2.04648913
H        3.39963859       3.13946866      -0.36860985
H        1.74604928       2.57285907      -0.58967979
H        2.99399893       2.17936917      -1.79134930
H        3.33717878       0.36742986       2.17021913
H        3.67919866       2.14198907       1.90733929
H        5.10179787       1.60777932       0.16050993
