10
Properties=species:S:1:pos:R:3 atomization_energy=-1191.04 smiles=C.C.C.C.C.C.N.H.H.H pbc="F F F"
C        0.82591969       0.00085000       0.00000000
C        2.02590925      -0.00003000       0.00000000
C        3.55815863       0.00000000       0.00000000
C        4.74831812       0.00000000       0.00000000
C        6.19231754       0.00000000       0.00000000
C        6.67433737       1.36116943       0.00000000
N        7.05854703       2.44615901       0.00000000
H       -0.23879990       0.00434000       0.00000000
H        6.57049750      -0.53383976      -0.87862967
H        6.57049750      -0.53383976       0.87862967
