20
Properties=species:S:1:pos:R:3 atomization_energy=-1908.14 smiles=C.C.C.C.C.N.C.H.H.H.H.H.H.H.H.H.H.H.H.H pbc="F F F"
C        1.25981956      -0.36552986      -0.61380979
C        2.77050888      -0.20937992      -0.57269979
C        3.20436876       0.78070969       0.50780981
C        4.69285823       0.96001963       0.51856978
C        5.41635805       1.24071948       1.81854923
N        5.52354786      -0.05655998       1.15773958
C        6.79750732      -0.26410989       0.47637981
H        0.97446963      -1.09160962      -1.38260950
H        0.77307970       0.58620979      -0.84872968
H        0.87494968      -0.72106968       0.34738987
H        3.12807868       0.12669995      -1.55323944
H        3.22914870      -1.18761952      -0.38756983
H        2.84535892       0.43707981       1.48729947
H        2.73835886       1.75662928       0.32484987
H        5.05901813       1.43771941      -0.38359984
H        4.84812825       1.24854957       2.74036892
H        6.27190737       1.90424924       1.80423926
H        6.65239716      -0.93066965      -0.38051986
H        7.50175729      -0.74991972       1.15893955
H        7.26867689       0.65619974       0.10887996
