18
Properties=species:S:1:pos:R:3 atomization_energy=-1768.2 smiles=C.C.C.C.C.C.N.H.H.H.H.H.H.H.H.H.H.H pbc="F F F"
C        0.99999962       0.00000000       0.00000000
C        2.44399905       0.00000000       0.00000000
C        3.63415853       0.00000000       0.00000000
C        5.07815797       0.00000000       0.00000000
C        5.60654769      -0.81613965      -1.18199960
C        5.61238764       1.44879940      -0.02062999
N        7.06963699       1.52911934       0.11024995
H        0.60601976       1.02087959       0.01158000
H        0.60593976      -0.52047980       0.87827963
H        0.60601976      -0.50035979      -0.88992963
H        5.42630798      -0.48277981       0.92278966
H        5.31778788      -0.36677985      -2.13959924
H        5.20613785      -1.83679933      -1.16337957
H        6.69877716      -0.89145964      -1.15876960
H        5.16122794       2.02338921       0.79801968
H        5.31794785       1.94478929      -0.95376963
H        7.35102722       1.14451957       1.01157961
H        7.34906711       2.50962890       0.12125995
