22
Properties=species:S:1:pos:R:3 atomization_energy=-2062.9 smiles=C.C.C.C.C.C.N.H.H.H.H.H.H.H.H.H.H.H.H.H.H.H pbc="F F F"
C        0.96438962      -0.10073996      -0.00087000
C        2.49515896       0.01305000      -0.04068999
C        3.01352886      -0.81670967      -1.22708955
C        3.01746877       1.48873940      -0.03453999
C        2.60727908       2.27963905      -1.28700952
C        2.53166902       2.24617917       1.21545948
N        4.49009846       1.47000948       0.01030000
H        0.54746975       0.37358986       0.89176964
H        0.65990976      -1.15313959       0.02790999
H        0.49984980       0.35082987      -0.88243963
H        2.86810885      -0.47618980       0.87119965
H        2.62190899      -0.44898981      -2.18055916
H        2.70059900      -1.86214929      -1.12623956
H        4.10636848      -0.81256967      -1.27874946
H        2.99311880       1.82496929      -2.20561919
H        2.99184882       3.30658866      -1.25101951
H        1.51857934       2.35100918      -1.37846951
H        2.76786899       1.69592935       2.13356928
H        1.44990941       2.41434912       1.19028956
H        3.00130872       3.23459880       1.29248952
H        4.80394808       1.00649961       0.86224966
H        4.85106791       2.42225895       0.05550998
