18
Properties=species:S:1:pos:R:3 atomization_energy=-1769.53 smiles=C.C.C.C.C.C.N.H.H.H.H.H.H.H.H.H.H.H pbc="F F F"
C        0.97001964       1.69065929       1.26276944
C        2.45446903       1.53455935       1.22317955
C        3.16165867       1.37223945       0.09324996
C        4.63579806       1.21999955       0.06989997
C        5.48820786       2.34488914       0.69369975
C        6.34627746       1.18918952       1.24010947
N        5.15122805       0.32215986       1.13156955
H        0.70832973       2.64893897       1.72170928
H        0.52699979       0.88941967       1.86206930
H        0.52309979       1.65691932       0.26408989
H        2.96266873       1.54805945       2.18556920
H        2.65631890       1.35258953      -0.86824965
H        4.98628819       0.93273965      -0.93145964
H        5.00367785       2.94256877       1.47481942
H        5.98823758       3.01596891      -0.00975000
H        7.16992706       0.89001965       0.58132977
H        6.72804759       1.32054951       2.25575918
H        5.33196788      -0.63069977       0.82473966
