14
Properties=species:S:1:pos:R:3 atomization_energy=-1389.49 smiles=C.C.C.C.O.O.H.H.H.H.H.H.H.H pbc="F F F"
C        0.97703962      -0.02471999      -0.09375996
C        2.50033907       0.00390000      -0.04795998
C        3.12436865      -0.88296964      -1.11911953
C        3.02648885       1.42356943      -0.13421995
O        2.73376895       2.06510916      -1.28606946
O        3.66577867       1.95852923       0.75972967
H        0.55258981       0.64669971       0.66042975
H        0.60381974      -1.03521958       0.10276996
H        0.59254975       0.29044990      -1.06941961
H        2.81345895      -0.38255986       0.93089965
H        2.80338891      -0.59396974      -2.12538921
H        2.84290878      -1.93008923      -0.96566964
H        4.21742829      -0.81742969      -1.09011960
H        2.21915903       1.53795939      -1.92389929
