18
Properties=species:S:1:pos:R:3 atomization_energy=-1763.88 smiles=C.C.C.C.C.N.C.H.H.H.H.H.H.H.H.H.H.H pbc="F F F"
C        0.96229963       1.75484933       1.28203948
C        2.44760916       1.59356941       1.23381948
C        3.13254872       1.34545953       0.10745996
C        4.61131839       1.18662949       0.07207997
C        5.49043797       2.25623911       0.75394971
N        6.40840748       1.17142957       1.18845953
C        5.27771767       0.21460991       1.06851954
H        0.70801974       2.74605899       1.66951936
H        0.52783980       1.00289960       1.94772920
H        0.50106979       1.64500941       0.29560988
H        2.96228871       1.69019929       2.18757902
H        2.61015893       1.25028952      -0.84134969
H        4.93980827       0.99336962      -0.96044960
H        5.04111826       2.79582881       1.59554933
H        5.94427744       2.98975876       0.08028997
H        7.15522725       0.99015958       0.51697981
H        5.55339764      -0.76193972       0.65840971
H        4.75501802       0.05241998       2.01819927
