20
Properties=species:S:1:pos:R:3 atomization_energy=-1913.07 smiles=C.C.C.C.C.C.N.H.H.H.H.H.H.H.H.H.H.H.H.H pbc="F F F"
C        1.16431950       0.21801991       0.12010995
C        2.67211887      -0.07047997       0.00109000
C        3.09590872      -0.96613961       1.17944954
C        2.92680892      -0.84380966      -1.30784943
C        3.41449863       1.25563945      -0.06722997
C        3.75405853       2.07108916       1.15864949
N        4.79140822       1.36807951       0.40840984
H        0.80967965       0.82757966      -0.71915972
H        0.94049966       0.76988973       1.04029957
H        0.57950977      -0.70859973       0.13240994
H        2.88904881      -0.49299979       2.14494917
H        4.16560828      -1.20026951       1.14453951
H        2.55243891      -1.91830927       1.16422954
H        2.60676886      -0.26371990      -2.18119908
H        2.38425912      -1.79578932      -1.32220948
H        3.99354840      -1.06148960      -1.43473938
H        3.17641878       1.81123931      -0.97031960
H        3.53668852       1.68235936       2.14447907
H        3.74643863       3.15158888       1.07969958
H        5.32554807       2.01527916      -0.17440993
