14
Properties=species:S:1:pos:R:3 atomization_energy=-1494.07 smiles=C.C.C.C.C.C.N.H.H.H.H.H.H.H pbc="F F F"
C        0.99263963      -0.03144999       0.01126999
C        2.51999896       0.00000000       0.00000000
C        3.05943877      -0.76334968      -1.20839950
C        3.00201878       1.36116943       0.00000000
C        3.39929870       2.48306901       0.00000000
C        3.91212841       3.93230835      -0.00064000
N        4.29960854       5.02742777      -0.00118000
H        0.59593975       0.48834980       0.89087966
H        0.62432973      -1.06263959       0.03746999
H        0.57359979       0.45520981      -0.87720968
H        2.87535883      -0.50632979       0.90599967
H        2.73120905      -0.30907986      -2.15057918
H        2.71656904      -1.80354926      -1.19695956
H        4.15543832      -0.77194970      -1.20981950
