14
Properties=species:S:1:pos:R:3 atomization_energy=-1375.33 smiles=C.C.C.O.C.O.H.H.H.H.H.H.H.H pbc="F F F"
C        0.98515964      -0.20559992       0.00482000
C        2.47031897       0.10191996      -0.05420998
C        2.75691883       1.59025933      -0.05837998
O        1.87311926       2.44996896      -0.04482998
C        4.22609839       1.99336924      -0.10446996
O        4.39292821       3.39850864       0.00877999
H        0.81952966      -1.28737943       0.00924000
H        0.46133982       0.21713991      -0.85895964
H        0.53234981       0.21384992       0.90935965
H        2.89912894      -0.33051988      -0.96415963
H        2.97018895      -0.34021987       0.81386968
H        4.65296819       1.66871934      -1.05708957
H        4.75806820       1.51709941       0.72325973
H        3.50339871       3.78969855      -0.11589995
