14
Properties=species:S:1:pos:R:3 atomization_energy=-1519.85 smiles=C.C.C.C.C.C.N.H.H.H.H.H.H.H pbc="F F F"
C        1.04669958      -0.31435986       0.38890984
C        2.51157891      -0.01463999       0.31951988
C        3.13901875       1.13798949       0.00000000
C        2.42507900       2.36887903      -0.32732988
C        2.97734885       3.53177866      -0.70471969
C        4.54501836       1.13798949       0.00000000
N        5.69602789       1.13798949       0.00000000
H        0.82637969      -1.19172949      -0.22769991
H        0.40744985       0.49728980       0.03866998
H        0.76729968      -0.54743979       1.42087945
H        3.13096888      -0.88129965       0.56288978
H        1.34099945       2.35171899      -0.25642990
H        4.04855837       3.67616866      -0.81144970
H        2.34952900       4.39111849      -0.92288965
