18
Properties=species:S:1:pos:R:3 atomization_energy=-1692.38 smiles=C.C.O.C.C.C.H.H.H.H.H.H.H.H.H.H.H.H pbc="F F F"
C        1.42728943       2.65534893      -1.40459942
C        2.57055907       2.37947896      -0.44759982
O        3.69869856       1.95956921      -1.21069950
C        4.83877786       1.62725942      -0.41309983
C        5.75380771       0.76882968      -1.27971954
C        5.56945802       2.88814874       0.03808999
H        0.53463978       2.98046893      -0.86284964
H        1.18277955       1.75823928      -1.98296928
H        1.70627935       3.43218856      -2.12433926
H        2.28302912       1.58940936       0.25438990
H        2.80542901       3.29003876       0.11126995
H        4.52772811       1.03647959       0.45732981
H        6.05834781       1.30735953      -2.18386925
H        5.22707782      -0.13202995      -1.61275933
H        6.65112743       0.46440981      -0.73255971
H        5.79034780       3.53831858      -0.81517965
H        6.50665719       2.64244901       0.54675976
H        4.95625825       3.47256863       0.73045969
