16
Properties=species:S:1:pos:R:3 atomization_energy=-1657.63 smiles=C.C.C.C.C.C.N.H.H.H.H.H.H.H.H.H pbc="F F F"
C        2.54607891      -0.21816991      -1.61817941
C        2.38171915       0.24387991      -0.17675994
C        2.92946874       1.63603941       0.06850997
C        2.11185920       2.64171901       0.43015982
C        4.41982824       1.85716928      -0.10787995
C        5.21464798       1.02905960       0.81333966
N        5.85479774       0.37270985       1.52669936
H        2.06516921      -1.19199948      -1.75681928
H        3.60134866      -0.33038987      -1.88632931
H        2.08657914       0.48898981      -2.31656899
H        2.86982899      -0.47073983       0.49587981
H        1.31361949       0.20815991       0.07315997
H        1.04345958       2.48892890       0.55860980
H        2.48113893       3.64694845       0.61315978
H        4.67346808       2.91133874       0.05939998
H        4.70158839       1.64002940      -1.14416959
