10
Properties=species:S:1:pos:R:3 atomization_energy=-1123.74 smiles=C.C.C.O.C.C.H.H.H.H pbc="F F F"
C        0.96863964      -0.00055000      -0.04266999
C        2.30874900       0.00696000      -0.00248000
C        3.02160877      -1.30053952       0.01807999
O        4.24187818      -1.40812941       0.05459998
C        3.03108885       1.23254950       0.01994999
C        3.64105853       2.26668916       0.03888999
H        0.40568984       0.92890964      -0.05896998
H        0.39103983      -0.91888963      -0.06056998
H        2.37468895      -2.19377905      -0.00188000
H        4.19360847       3.17705870       0.05602998
