16
Properties=species:S:1:pos:R:3 atomization_energy=-1610.75 smiles=C.C.C.C.C.C.N.H.H.H.H.H.H.H.H.H pbc="F F F"
C        1.14789955       0.14913995       0.07266997
C        2.64410884      -0.11366996      -0.04848998
C        2.95688883      -0.81084965      -1.30890948
C        3.20920873      -1.38869939      -2.33230916
C        3.41999869       1.17476955      -0.13229994
C        3.71637866       1.96048921       1.12375953
N        4.77628803       1.25118946       0.42044983
H        0.92219965       0.69104971       0.99742963
H        0.58422975      -0.79028970       0.08298997
H        0.77405969       0.75282967      -0.76282969
H        2.97492875      -0.71859974       0.80435969
H        3.43955865      -1.90273930      -3.23622861
H        3.22402865       1.74466928      -1.03554956
H        3.42880858       1.54693936       2.08253919
H        3.73422857       3.04164891       1.06826961
H        5.35021799       1.88742922      -0.13603995
