10
Properties=species:S:1:pos:R:3 atomization_energy=-1184.76 smiles=C.C.C.C.C.C.N.H.H.H pbc="F F F"
C        0.99999962       0.00000000       0.00000000
C        2.19015911       0.00000000       0.00000000
C        3.63415853       0.00000000       0.00000000
C        4.13407848      -0.70737970      -1.15534950
C        4.54612811      -1.29040943      -2.10759922
C        4.11617835       1.36116943       0.00000000
N        4.50038802       2.44615901       0.00000000
H       -0.06564997       0.00376000      -0.00482000
H        3.99064835      -0.50293982       0.90714967
H        4.91333822      -1.80863929      -2.96478881
