16
Properties=species:S:1:pos:R:3 atomization_energy=-1552.42 smiles=C.C.O.C.C.C.H.H.H.H.H.H.H.H.H.H pbc="F F F"
C        1.06750959       0.23829990       0.07710997
C        2.55990893      -0.01026000      -0.08164997
O        2.79177890      -0.70204971      -1.30480947
C        3.33739881       1.27227955      -0.10075996
C        3.91298836       1.83840933       1.17300954
C        4.82710805       1.25503953       0.13195995
H        0.85001966       0.75910969       1.01441960
H        0.51743981      -0.70875970       0.06294998
H        0.67811975       0.84297969      -0.74956968
H        2.90382886      -0.66349974       0.72829973
H        2.55155904      -0.10102996      -2.02943924
H        2.96249891       1.97475918      -0.83683965
H        3.78308848       1.28624950       2.09725919
H        3.90822838       2.91566875       1.29767947
H        5.43893766       1.93512929      -0.44992981
H        5.30367802       0.30377987       0.34312985
