14
Properties=species:S:1:pos:R:3 atomization_energy=-1523.05 smiles=C.C.C.C.C.C.N.H.H.H.H.H.H.H pbc="F F F"
C        1.03569957      -0.00755000       0.24399991
C        2.51908905      -0.10168996       0.00487000
C        3.06680886      -1.24194947      -0.44777982
C        3.36891877       1.05275956       0.26609990
C        2.96025871       2.24901916       0.71775973
C        3.87289847       3.31576872       0.94130964
N        4.61386795       4.18868827       1.12505953
H        0.59079976       0.77278971      -0.38276986
H        0.82612970       0.21982992       1.29475950
H        0.52221979      -0.94605965       0.00674000
H        2.45988911      -2.11941905      -0.65178974
H        4.13277847      -1.34342953      -0.63075976
H        4.43355809       0.91183962       0.07023997
H        1.91956928       2.45761914       0.93253962
