18
Properties=species:S:1:pos:R:3 atomization_energy=-1762.37 smiles=C.C.C.C.C.N.C.H.H.H.H.H.H.H.H.H.H.H pbc="F F F"
C        2.37052902       2.95188888      -0.76053972
C        2.78845897       1.68313931      -0.67817974
C        3.38133877       1.07044963       0.55759978
C        4.79869807       0.61363978       0.25597990
C        5.90667755       1.68955938       0.20279993
N        6.80149718       0.74403972       0.91399964
C        5.59964795       0.07136997       1.46006940
H        1.93904926       3.33621865      -1.68036935
H        2.44359911       3.63488853       0.08034997
H        2.68157902       1.03751958      -1.54837941
H        2.76677893       0.21166992       0.85015964
H        3.36622866       1.77696932       1.39590951
H        4.84201830      -0.07979997      -0.59826978
H        5.70187794       2.60153904       0.77625971
H        6.24414739       1.97336921      -0.79816969
H        7.33592721       0.15082993       0.27818988
H        5.67398776      -1.01807960       1.52541941
H        5.29496804       0.46048981       2.43889893
