10
Properties=species:S:1:pos:R:3 atomization_energy=-1091.7 smiles=C.C.C.O.C.O.H.H.H.H pbc="F F F"
C        1.43258939      -1.00896962       0.42003982
C        2.12534908       0.12857995       0.28354990
C        1.64345934       1.20715955      -0.61630976
O        0.61558973       1.14309958      -1.27691955
C        2.48354895       2.46102914      -0.71428973
O        3.52513856       2.59346899      -0.09131997
H        1.78422927      -1.79729927       1.07768951
H        0.50347981      -1.18112956      -0.11735995
H        3.05153878       0.29495988       0.82145968
H        2.06976921       3.22622872      -1.38960942
