14
Properties=species:S:1:pos:R:3 atomization_energy=-1375.59 smiles=C.C.O.C.C.O.H.H.H.H.H.H.H.H pbc="F F F"
C        1.56148941      -0.78965969      -0.48948980
C        3.02718882      -0.54373979      -0.24898990
O        3.84311859      -1.46584943      -0.27161990
C        3.43251861       0.87787968       0.08100997
C        4.90379808       1.11222963      -0.22132992
O        5.72317772       0.41907983       0.71269973
H        0.99346960      -0.53401981       0.40839984
H        1.39859949      -1.84495922      -0.72645973
H        1.22359956      -0.18539993      -1.33541953
H        3.21634869       1.04775956       1.14075959
H        2.82771894       1.55896938      -0.52611979
H        5.13704804       2.17795914      -0.13421995
H        5.17162802       0.78615967      -1.23225956
H        5.54375758      -0.53482979       0.57524978
