17
Properties=species:S:1:pos:R:3 atomization_energy=-1783.52 smiles=C.C.C.C.C.C.C.H.H.H.H.H.H.H.H.H.H pbc="F F F"
C        1.06099957       0.00365000       0.16495993
C        2.39409903      -0.00288000       0.06388997
C        3.25188880       1.23128948       0.00715000
C        4.40269848       0.79048967      -0.88275964
C        4.62672826      -0.67301976      -0.51835981
C        3.25607876      -1.15749949      -0.12576995
C        2.93448888      -2.44627912       0.03840998
H        0.47448982      -0.90880963       0.14644994
H        0.51361980       0.93672964       0.25902989
H        3.61353853       1.48052943       1.01164963
H        2.73237885       2.10001919      -0.40723984
H        4.12124845       0.87830965      -1.93979919
H        5.30113805       1.39490939      -0.72669970
H        5.04433801      -1.23057954      -1.36376945
H        5.31228807      -0.75293969       0.33451987
H        1.94346922      -2.75937880       0.34534986
H        3.67034864      -3.22773868      -0.11832996
