12
Properties=species:S:1:pos:R:3 atomization_energy=-1354.98 smiles=C.C.C.C.C.C.N.H.H.H.H.H pbc="F F F"
C        0.98751963       0.19715993       0.13970995
C        2.31513903       0.05982997      -0.03263999
C        2.98694879      -1.28871944      -0.05323998
C        3.38558878      -1.64895941      -1.42237944
C        3.71483843      -1.94502925      -2.53902902
C        3.13377884       1.22514950      -0.15235995
N        3.79546861       2.17515902      -0.23364991
H        0.51417979       1.17575957       0.16887993
H        0.33622985      -0.66531974       0.24626990
H        2.31642920      -2.06130918       0.34317988
H        3.86354859      -1.27824946       0.60602978
H        4.00955831      -2.20268912      -3.53054855
