20
Properties=species:S:1:pos:R:3 atomization_energy=-1917.04 smiles=C.C.C.C.N.C.C.H.H.H.H.H.H.H.H.H.H.H.H.H pbc="F F F"
C        0.95575965      -0.13001995      -0.25813989
C        2.47584906      -0.11564995      -0.23420991
C        3.01702870       1.25205949       0.18871992
C        4.53562810       1.28037951       0.22041992
N        5.19651798       1.21403948      -1.09222960
C        5.19906804       2.12417928       1.28403945
C        5.22910807       0.62740975       1.39178944
H        0.59087975      -1.11863960      -0.55337979
H        0.56855979       0.60268974      -0.97305960
H        0.54538979       0.10235996       0.72953969
H        2.85279890      -0.38239985      -1.22848949
H        2.83262880      -0.88851967       0.45697982
H        2.61204889       1.50744939       1.17632959
H        2.65933905       2.02528914      -0.50276981
H        6.21058734       1.18694958      -0.99731961
H        4.98878779       2.05114919      -1.63611940
H        4.57405815       2.66784892       1.98412925
H        6.12723778       2.63251902       1.05026956
H        6.17048736       0.11859996       1.21954952
H        4.62094836       0.16123994       2.15897903
