18
Properties=species:S:1:pos:R:3 atomization_energy=-1690.79 smiles=C.C.C.O.C.C.H.H.H.H.H.H.H.H.H.H.H.H pbc="F F F"
C       -0.76745971      -0.13196995       0.48223982
C        0.29208989      -0.41336982      -0.56813978
C        1.67100937       0.05368998      -0.12107996
O        2.60329905      -0.24649990      -1.15883950
C        3.92747848       0.15045994      -0.81033969
C        4.85139796      -0.19776992      -1.96007918
H       -1.74636936      -0.47878982       0.13634994
H       -0.84054967       0.94072966       0.68811970
H       -0.53669982      -0.64711972       1.42017948
H        0.02336999       0.08059996      -1.50935941
H        0.32113988      -1.48704941      -0.78861971
H        1.96726923      -0.46428983       0.79821972
H        1.66490939       1.13409955       0.06303998
H        4.24493845      -0.37742984       0.09604996
H        3.95359855       1.23027952      -0.62499973
H        4.81704810      -1.27194951      -2.17027919
H        5.88249766       0.08438997      -1.73070930
H        4.53907798       0.31607988      -2.87435884
