14
Properties=species:S:1:pos:R:3 atomization_energy=-1349.75 smiles=C.C.O.C.C.O.H.H.H.H.H.H.H.H pbc="F F F"
C        0.94078965       0.14205994       0.10365996
C        2.42717915      -0.01920999      -0.16958993
O        2.59095905      -0.57284980      -1.47246946
C        3.14063872       1.29442945      -0.11588995
C        3.91798856       1.72415929       1.09997957
O        4.57094842       1.17764953      -0.05631998
H        0.76421972       0.56628975       1.09654951
H        0.43123983      -0.82489964       0.03686998
H        0.47332982       0.79827971      -0.63865975
H        2.85197882      -0.73045969       0.54849977
H        3.55117864      -0.57672977      -1.64179938
H        2.72826888       2.04316921      -0.77843972
H        3.88327837       1.11171954       1.99196918
H        4.03622846       2.78478881       1.28382951
