16
Properties=species:S:1:pos:R:3 atomization_energy=-1573.54 smiles=C.C.C.O.C.C.H.H.H.H.H.H.H.H.H.H pbc="F F F"
C        1.44669937      -0.59905977      -0.45397983
C        2.91709896      -0.35099988      -0.16930994
C        3.24590879       1.12556950      -0.02189999
O        2.38482914       2.00044927      -0.09956996
C        4.70932839       1.44827947       0.23137991
C        4.96520794       2.93766875       0.37488984
H        1.25357954      -1.67145940      -0.55353977
H        1.13820952      -0.10791996      -1.38258945
H        0.81869967      -0.21183991       0.35491987
H        3.52055850      -0.75520973      -0.98895962
H        3.20149875      -0.85796967       0.75881970
H        5.29503769       1.05581959      -0.60650978
H        5.01894793       0.93409965       1.14727957
H        4.66643814       3.47719865      -0.52988977
H        6.02873775       3.12649883       0.55022975
H        4.40053802       3.35416874       1.21548951
