20
Properties=species:S:1:pos:R:3 atomization_energy=-1921.33 smiles=C.C.C.C.C.C.N.H.H.H.H.H.H.H.H.H.H.H.H.H pbc="F F F"
C        2.36062906      -0.69617973       1.44438941
C        2.59915906      -0.16882994       0.03867999
C        3.18209876       1.21547954       0.05976998
C        4.48538844       1.55807940      -0.01189999
C        5.61936763       0.56825977      -0.09935996
C        4.90022810       3.00998891      -0.02946999
N        5.72651758       3.33519873       1.12286955
H        1.91282926      -1.69354936       1.40309943
H        1.68240932      -0.04285998       2.00338919
H        3.30007876      -0.77044971       2.00264923
H        1.64586936      -0.13424995      -0.50282980
H        3.23080879      -0.86619965      -0.52042981
H        2.43862894       2.00909919       0.13110995
H        5.28771807      -0.47252980      -0.08895997
H        6.30189744       0.68782971       0.74868967
H        6.18511753       0.72441970      -1.02367959
H        4.02737844       3.67357848      -0.03692998
H        5.45999773       3.21460861      -0.94897963
H        5.17955778       3.18041874       1.96841923
H        5.94633747       4.32842831       1.10402962
