16
Properties=species:S:1:pos:R:3 atomization_energy=-1548.78 smiles=C.C.C.C.O.C.H.H.H.H.H.H.H.H.H.H pbc="F F F"
C        1.67170934      -0.69221970      -0.92024964
C        2.96507874      -0.49684980      -0.14433994
C        3.14728865       0.93531961       0.27066990
C        4.18729843       1.68493932      -0.12343995
O        4.47867845       2.98467882       0.18111992
C        3.57227859       3.67112860       1.03625962
H        1.55701936      -1.74322935      -1.20398951
H        1.66475938      -0.09134996      -1.83577929
H        0.80158966      -0.40830986      -0.31881988
H        3.80760852      -0.83932965      -0.75667968
H        2.94825884      -1.12337951       0.75483968
H        2.38412917       1.33888946       0.92874966
H        4.96417792       1.30018954      -0.77704969
H        3.95012849       4.68761832       1.18110950
H        3.51750857       3.18859881       2.01761916
H        2.57979894       3.74162843       0.57920975
