12
Properties=species:S:1:pos:R:3 atomization_energy=-1245.09 smiles=C.C.O.C.C.O.H.H.H.H.H.H pbc="F F F"
C        1.02269959      -0.27639991       0.35983986
C        2.21652923       0.05993998      -0.48320981
O        2.79650885      -0.74661968      -1.19838952
C        2.70681896       1.49783935      -0.41972983
C        3.89745838       1.83560934      -1.26670947
O        2.12926905       2.30401904       0.29926989
H        0.16758994       0.33049988       0.05154998
H        1.25263948      -0.10466996       1.41443945
H        0.76838968      -1.33161942       0.22514991
H        3.66569868       1.65915939      -2.32000902
H        4.75535816       1.23311951      -0.95807964
H        4.14806849       2.89238892      -1.13681956
