13
Properties=species:S:1:pos:R:3 atomization_energy=-1245.18 smiles=C.O.C.C.C.H.H.H.H.H.H.H.H pbc="F F F"
C        2.23326915      -0.84230968      -0.24746990
O        3.45497861      -0.11874995      -0.21802991
C        3.24061867       1.25818951       0.07381997
C        4.57659812       1.92943922       0.07581997
C        4.90179810       2.98759880      -0.67824970
H        2.45737892      -1.88839931      -0.47418983
H        1.57340941      -0.45016981      -1.02767960
H        1.73560932      -0.79487967       0.72598970
H        2.78290895       1.35834949       1.06456955
H        2.57194891       1.69812931      -0.67562975
H        5.32277798       1.50395939       0.74159973
H        4.19333822       3.43982865      -1.36533945
H        5.89750784       3.41686877      -0.62849976
