12
Properties=species:S:1:pos:R:3 atomization_energy=-1358.14 smiles=C.C.C.C.C.C.N.H.H.H.H.H pbc="F F F"
C        0.99999962       0.00000000       0.00000000
C        2.19015911       0.00000000       0.00000000
C        3.59615871       0.00000000       0.00000000
C        4.29443828       1.12203951      -0.22912991
C        5.79505781       1.19374953      -0.23432992
C        6.29223769       1.64527940      -1.54314934
N        6.69716729       2.00545919      -2.56895904
H       -0.06527997       0.00093000      -0.00256000
H        4.09960827      -0.94361961       0.19130993
H        3.76400845       2.05553925      -0.41599984
H        6.23647753       0.22089991       0.01081000
H        6.11572744       1.89485924       0.54443976
