12
Properties=species:S:1:pos:R:3 atomization_energy=-1306.74 smiles=C.C.C.C.C.C.N.H.H.H.H.H pbc="F F F"
C        0.86039968       0.00218000      -0.02844999
C        2.05967925      -0.00256000      -0.03284999
C        3.59291852      -0.00841999      -0.03158999
C        4.79197798      -0.01396999      -0.01940999
C        6.22321753      -0.02278999       0.01440000
C        6.97432744      -0.77658969      -1.05270960
N        6.94538706       0.67949975      -1.04465960
H       -0.20479992       0.00784000      -0.02287999
H        6.67495760       0.02443999       1.00029958
H        6.41829734      -1.25543948      -1.84954926
H        7.91237696      -1.24847954      -0.79004967
H        7.81710677       1.06650960      -0.68211970
