16
Properties=species:S:1:pos:R:3 atomization_energy=-1552.43 smiles=C.C.C.O.C.C.H.H.H.H.H.H.H.H.H.H pbc="F F F"
C        1.08242956      -0.21755992      -0.32642988
C        2.55512902      -0.20322991       0.06611998
C        3.15113873       1.21039948       0.02968999
O        2.45563909       2.04081925       0.95570962
C        4.61288840       1.32839942       0.36457987
C        5.46052763       0.35055987       0.71314970
H        0.70021974      -1.24312949      -0.31529989
H        0.94219962       0.18595992      -1.33402943
H        0.47860981       0.37305984       0.36924986
H        3.10622881      -0.86250968      -0.61511976
H        2.63743897      -0.62252972       1.07678957
H        2.99724871       1.63740932      -0.96799960
H        2.66862888       1.70925938       1.84488933
H        5.00602807       2.34316900       0.30470990
H        5.15689793      -0.68766973       0.79386971
H        6.50129768       0.57738974       0.92773964
