10
Properties=species:S:1:pos:R:3 atomization_energy=-1189.97 smiles=C.C.C.C.C.C.N.H.H.H pbc="F F F"
C        0.99999962       0.00000000       0.00000000
C        2.44399905       0.00000000       0.00000000
C        3.63415853       0.00000000       0.00000000
C        5.16552817      -0.00010000      -0.00039000
C        6.36553740       0.00001000       0.00001000
C        7.89699687      -0.00015000      -0.00057000
N        9.05713675      -0.00012000      -0.00050000
H        0.60589977       1.02074958      -0.01828999
H        0.60587977      -0.49455980       0.89311967
H        0.60592973      -0.52619981      -0.87487966
