16
Properties=species:S:1:pos:R:3 atomization_energy=-1628.88 smiles=C.C.C.C.C.C.N.H.H.H.H.H.H.H.H.H pbc="F F F"
C        1.43792948      -0.45378982      -0.88133965
C        2.60901890      -0.19660993      -0.28592989
C        3.28845866       1.06938958      -0.40492984
C        4.46466801       1.33004954       0.18934993
C        5.19679806       2.59232895       0.09981996
C        4.81544833       3.72713857       1.01462960
N        6.02928784       2.95384874       1.24317945
H        0.96154964      -1.42170950      -0.76306972
H        0.92639964       0.28148990      -1.49430936
H        3.07573886      -0.97178962       0.31831988
H        2.81403880       1.84243932      -1.00518963
H        4.93638817       0.55233981       0.78841967
H        5.60131788       2.83205879      -0.87808969
H        4.01754838       3.57895855       1.73219932
H        4.94208783       4.74229800       0.66109976
H        6.85536738       3.46831861       0.93492963
