12
Properties=species:S:1:pos:R:3 atomization_energy=-1283.65 smiles=C.C.C.O.C.C.H.H.H.H.H.H pbc="F F F"
C        2.21464912      -1.41055948       0.47438983
C        3.43003870      -0.86024968       0.36491986
C        3.58460850       0.61729978       0.28357990
O        2.63070904       1.38497940       0.31185989
C        4.99221798       1.08344961       0.16531993
C        5.26819772       2.39125904       0.08787997
H        2.09109915      -2.48646893       0.53470980
H        1.31558944      -0.79959971       0.50636979
H        4.31855812      -1.48059945       0.33425988
H        5.78506751       0.34725985       0.14352995
H        4.47996836       3.14044871       0.10898996
H        6.29076761       2.74200883       0.00160000
