10
Properties=species:S:1:pos:R:3 atomization_energy=-1123.24 smiles=C.C.C.O.C.C.H.H.H.H pbc="F F F"
C        0.92601963      -0.12361995       0.04953998
C        2.25044912       0.02985999      -0.07369997
C        2.96697880       1.32530949       0.06998997
O        4.18633830       1.35425946      -0.06297997
C        2.27056900       2.56189906       0.36335985
C        1.70266937       3.59264853       0.60647975
H        0.47687980      -1.10527954      -0.06996997
H        0.25557990       0.70122970       0.26851988
H        2.89248884      -0.81706968      -0.29329989
H        1.21054949       4.51258824       0.82178966
