16
Properties=species:S:1:pos:R:3 atomization_energy=-1660.47 smiles=C.C.C.C.C.C.N.H.H.H.H.H.H.H.H.H pbc="F F F"
C        0.84880967      -0.00427000       0.08297997
C        2.34483917      -0.18301993       0.03037999
C        2.79538900      -1.61430940       0.13625995
C        3.15732866       0.88341968      -0.11281995
C        4.66190829       0.91169964      -0.15974994
C        5.13422799       1.29462955      -1.49971947
N        5.52236796       1.60359933      -2.55020906
H        0.55206975       1.04710961       0.00846000
H        0.45435983      -0.39440984       1.02690961
H        0.37325984      -0.54308979      -0.74302970
H        2.29621898      -2.22234900      -0.62606974
H        2.53748904      -2.01745918       1.12108961
H        3.86991844      -1.74455926      -0.00700000
H        2.69811883       1.87088929      -0.18966993
H        5.10577814      -0.04398999       0.12947995
H        5.01443827       1.64471935       0.57523976
