17
Properties=species:S:1:pos:R:3 atomization_energy=-1661.44 smiles=C.C.C.N.N.C.C.H.H.H.H.H.H.H.H.H.H pbc="F F F"
C        2.62970905      -0.51211978       1.39386941
C        2.52473900       0.09754996       0.00927000
C        3.05642871       1.49798936       0.00888000
N        4.25377812       1.80238930      -0.38827986
N        4.38587808       3.13389870      -0.17241994
C        3.09521884       3.79005863      -0.00321000
C        2.24658921       2.64909894       0.52187980
H        2.26162916      -1.54263938       1.38604941
H        2.04030916       0.05523998       2.12185909
H        3.66817859      -0.52070980       1.74192934
H        1.48142937       0.11512995      -0.32131988
H        3.09601873      -0.50167980      -0.70757974
H        4.98152821       3.58614847      -0.86718967
H        2.71631898       4.13892829      -0.97030963
H        3.14168867       4.63464793       0.68918971
H        1.23609954       2.64543888       0.10791996
H        2.21921909       2.61398907       1.61475931
