20
Properties=species:S:1:pos:R:3 atomization_energy=-1921.48 smiles=C.C.C.C.C.C.N.H.H.H.H.H.H.H.H.H.H.H.H.H pbc="F F F"
C        0.83421969      -0.12872995       0.16976994
C        2.32022906       0.02765999       0.26638989
C        3.05421880       1.13515960       0.02499999
C        2.43136912       2.46744895      -0.33093986
C        4.57655825       1.18004958       0.11825996
C        5.27146793      -0.07057997       0.66845975
N        5.12506786       1.48426935      -1.20580957
H        0.60171977      -1.04658956      -0.38070986
H        0.34030986       0.69063973      -0.35641986
H        0.40217984      -0.21566992       1.17118960
H        2.82216891      -0.89637966       0.54458977
H        1.36505949       2.51981904      -0.09862996
H        2.55845903       2.67738906      -1.39748948
H        2.90521895       3.27388880       0.23954991
H        4.84085808       2.00714917       0.78971968
H        5.11975780      -0.94293964       0.02274999
H        4.90278825      -0.31474987       1.67071932
H        6.35225772       0.09233996       0.75266969
H        4.89841787       0.71427970      -1.83414923
H        6.14129768       1.51265940      -1.15196953
