16
Properties=species:S:1:pos:R:3 atomization_energy=-1612.44 smiles=C.C.C.C.C.N.C.H.H.H.H.H.H.H.H.H pbc="F F F"
C        0.99999962       0.00000000       0.00000000
C        2.44399905       0.00000000       0.00000000
C        3.63415853       0.00000000       0.00000000
C        5.06633776       0.03852999       0.03072999
C        5.84217764      -0.74596974      -1.00274959
N        5.75960780       0.70624971      -1.07214958
C        6.98753748       1.37924946      -0.66309973
H        0.60596979       1.02085959       0.01163999
H        0.60591977      -0.52053979       0.87823963
H        0.60600979      -0.50031980      -0.88994963
H        5.50468762       0.11609995       1.02091959
H        5.29509775      -1.28289955      -1.76826932
H        6.78033719      -1.19915951      -0.70797975
H        6.77574728       2.43664914      -0.47284982
H        7.72431700       1.33047951      -1.47147944
H        7.45319716       0.96544961       0.23932990
