14
Properties=species:S:1:pos:R:3 atomization_energy=-1473.54 smiles=C.C.C.C.C.C.N.H.H.H.H.H.H.H pbc="F F F"
C        0.92493965       0.10224996      -0.02782999
C        2.25983912       0.05063998      -0.04824998
C        3.05373886       1.22792956      -0.01697999
C        3.74105842       2.21141903       0.01097000
C        4.58326824       3.36824858       0.05030998
C        4.77918832       4.16755830      -1.21214952
N        3.97158851       4.68554819      -0.11631995
H        0.33547986      -0.80848966      -0.05087998
H        0.39006984       1.04697960       0.01277999
H        2.76987881      -0.90729962      -0.08839997
H        5.41662805       3.32370858       0.74429968
H        4.23571827       3.88222842      -2.10471911
H        5.73796787       4.64053835      -1.38077947
H        4.48353835       5.38277781       0.42466984
