18
Properties=species:S:1:pos:R:3 atomization_energy=-1781.46 smiles=C.C.C.C.C.C.N.H.H.H.H.H.H.H.H.H.H.H pbc="F F F"
C        1.30465946       2.89194885       0.09942997
C        2.78075883       2.65321901       0.05970998
C        3.33551869       1.43195944       0.10506996
C        4.76239820       1.11943961       0.05859998
C        5.13270795      -0.17410994       0.11583996
C        5.75257784       2.26533918      -0.06146998
N        7.16239699       1.87752926      -0.02341999
H        1.04639962       3.48217866       0.98376961
H        0.73277969       1.95935927       0.13076995
H        0.99537962       3.45023857      -0.78946969
H        3.39129878       3.54824857      -0.01544999
H        2.66682900       0.57343975       0.17784993
H        4.41293808      -0.98224963       0.19681992
H        6.17594781      -0.46967981       0.06385997
H        5.58551790       2.98059888       0.75260971
H        5.57501789       2.78867901      -1.00831962
H        7.37233710       1.53256934       0.91188964
H        7.73282712       2.71118883      -0.14927994
