20
Properties=species:S:1:pos:R:3 atomization_energy=-1919.7 smiles=C.C.C.C.N.C.C.H.H.H.H.H.H.H.H.H.H.H.H.H pbc="F F F"
C        0.96104964       0.13107995       0.18160993
C        2.39885901      -0.22884991      -0.19668993
C        2.45561916      -0.81385971      -1.60891936
C        3.33945859       0.96863964      -0.04400998
N        3.07541891       2.15057918      -0.88247968
C        3.90244848       1.24035952       1.33184942
C        4.79065829       0.67930974       0.26214989
H        0.91712962       0.55407976       1.19067954
H        0.32220989      -0.75816969       0.16038993
H        0.53232982       0.86634966      -0.50735981
H        2.72467897      -1.01997959       0.49264981
H        2.07616922      -0.10856995      -2.35590895
H        1.85189921      -1.72547936      -1.67382930
H        3.48414861      -1.07025962      -1.88448931
H        3.10941878       1.91116930      -1.87226928
H        2.14505918       2.52425906      -0.70478972
H        3.62048849       0.58864977       2.15087920
H        4.06153829       2.27089905       1.63028942
H        5.54731798       1.33262950      -0.15903995
H        5.11010815      -0.35218987       0.35691985
