14
Properties=species:S:1:pos:R:3 atomization_energy=-1367.87 smiles=C.C.O.C.C.O.H.H.H.H.H.H.H.H pbc="F F F"
C        1.11350957      -0.36336985       0.56676975
C        2.18523915      -0.12994995      -0.48948980
O        1.93631929      -1.00101961      -1.59202943
C        2.15770905       1.30757944      -0.98994958
C        3.34683878       1.55174942      -1.87722923
O        4.18380843       2.42169903      -1.65209929
H        1.26103946       0.28555987       1.43556942
H        1.12859962      -1.40527945       0.90512963
H        0.11343995      -0.18139993       0.15698994
H        3.17169868      -0.37817986      -0.08189997
H        1.93337925      -1.91409925      -1.25240948
H        2.19757916       2.01582924      -0.15514994
H        1.25945949       1.50930945      -1.58356940
H        3.41592859       0.91875962      -2.77875885
