16
Properties=species:S:1:pos:R:3 atomization_energy=-1656.66 smiles=C.C.C.C.C.C.N.H.H.H.H.H.H.H.H.H pbc="F F F"
C        1.04979959      -0.02599999       0.42833985
C        2.51999896       0.00000000       0.00000000
C        2.72837890      -0.62805976      -1.39105945
C        2.35181916      -2.08469915      -1.45475946
C        1.39733947      -2.57572909      -2.25574908
C        3.00201878       1.36116943       0.00000000
N        3.38622869       2.44615901       0.00000000
H        0.91530962       0.46778982       1.39831940
H        0.67993975      -1.05157960       0.53049978
H        0.41250984       0.49439979      -0.29659987
H        3.09417873      -0.57761975       0.73606971
H        3.78658857      -0.54827980      -1.67340929
H        2.17136926      -0.05627998      -2.14610913
H        2.90658886      -2.76973902      -0.81597967
H        0.82123971      -1.93917921      -2.91985896
H        1.17237959      -3.63839846      -2.26561902
