18
Properties=species:S:1:pos:R:3 atomization_energy=-1770.27 smiles=C.C.C.C.C.C.N.H.H.H.H.H.H.H.H.H.H.H pbc="F F F"
C        0.99999962       0.00000000       0.00000000
C        2.44399905       0.00000000       0.00000000
C        3.63415853       0.00000000       0.00000000
C        5.07815797       0.00000000       0.00000000
C        5.67355779       1.42353940      -0.01736999
C        5.37008807       2.19413913       1.27186952
N        7.13040744       1.36019946      -0.20295992
H        0.60612977       1.02090962       0.01374000
H        0.60594973      -0.52219979       0.87725964
H        0.60588974      -0.49848980      -0.89091966
H        5.43175783      -0.54686977      -0.88359966
H        5.45258777      -0.55004978       0.87260968
H        5.25216812       1.98013926      -0.86317968
H        5.75736760       1.66995929       2.15282922
H        4.29256850       2.33249917       1.40738944
H        5.82355762       3.19189880       1.24678956
H        7.56123682       0.90658962       0.60197974
H        7.50966687       2.30614897      -0.22615991
