18
Properties=species:S:1:pos:R:3 atomization_energy=-1699.08 smiles=C.C.C.C.C.O.H.H.H.H.H.H.H.H.H.H.H.H pbc="F F F"
C        1.11267953      -0.19797992       0.01597999
C        2.63178902      -0.12974995       0.02242999
C        3.12627880       1.31926944       0.02752999
C        4.65599818       1.40709939       0.01082999
C        5.13181822       2.85269898      -0.03933999
O        5.19515791       0.78926971       1.17617958
H        0.78008971      -1.24080956       0.01161000
H        0.70103969       0.29352988      -0.87146965
H        0.69444975       0.28803988       0.90342968
H        3.01862873      -0.65055975      -0.86090965
H        3.00729880      -0.66132975       0.90384961
H        2.73877898       1.81806929       0.92518965
H        2.71918900       1.84752922      -0.84345968
H        5.05073814       0.86907963      -0.85789965
H        4.78599824       3.41157865       0.83727965
H        4.77313792       3.35839857      -0.94090963
H        6.22627780       2.89444895      -0.02687999
H        4.83698833       1.25241945       1.95265925
