16
Properties=species:S:1:pos:R:3 atomization_energy=-1555.44 smiles=C.C.O.C.C.C.H.H.H.H.H.H.H.H.H.H pbc="F F F"
C        0.91100964      -0.10682996      -0.15566993
C        2.40061902       0.09112996       0.10254996
O        3.15018870      -0.78796970      -0.72853970
C        2.86830895       1.51341942      -0.12187996
C        2.74359902       2.09663921      -1.50311938
C        3.38611867       2.24258900       0.88289962
H        0.30458988       0.56689976       0.45796982
H        0.62418975      -1.13894962       0.07513996
H        0.65733977       0.05194998      -1.20951947
H        2.60691900      -0.21211992       1.13568949
H        2.89013888      -0.61904976      -1.64809933
H        3.32494879       1.51382946      -2.22400909
H        3.11157874       3.12764870      -1.54687943
H        1.69813927       2.11155918      -1.82514933
H        3.49230850       1.83648922       1.88472928
H        3.72899850       3.26175873       0.73145974
