18
Properties=species:S:1:pos:R:3 atomization_energy=-1771.35 smiles=C.C.C.C.N.C.C.H.H.H.H.H.H.H.H.H.H.H pbc="F F F"
C        1.01021960       0.03160999      -0.87639963
C        2.47657905       0.03202999      -0.59563979
C        3.22484872       1.14138953      -0.48042982
C        4.66009806       1.17826951      -0.19410992
N        5.57025792       0.57537980      -1.16864950
C        5.56061785       2.02803918      -1.05901952
C        6.74116730       2.71596900      -0.46642982
H        0.80909967      -0.51006982      -1.80557927
H        0.60754976       1.04427960      -0.97761960
H        0.47537982      -0.46865983      -0.06344997
H        2.94962875      -0.94110961      -0.47768982
H        2.73923899       2.10995915      -0.58682977
H        4.93188809       1.03788962       0.84725966
H        5.05016787       0.26624988      -1.99144925
H        5.14120798       2.57399910      -1.89567919
H        7.18506693       2.14663903       0.35710985
H        6.44728768       3.69697842      -0.08049997
H        7.51163707       2.86822896      -1.22878951
