14
Properties=species:S:1:pos:R:3 atomization_energy=-1385.93 smiles=C.C.O.C.C.C.H.H.H.H.H.H.H.H pbc="F F F"
C        0.93324961      -0.00676000       0.00676000
C        2.44844891      -0.04812998       0.00313000
O        2.93566878       1.29024945       0.00779999
C        4.36074841       1.33193950       0.00384000
C        4.80143788       2.73035894       0.00976000
C        5.16222818       3.87622849       0.01467999
H        0.51526979      -1.01728961       0.00330000
H        0.56015981       0.53318976      -0.86981965
H        0.56413977       0.52553980       0.88966967
H        2.80388877      -0.56914980      -0.89266964
H        2.80797882      -0.57680976       0.89277966
H        4.73929828       0.82438968      -0.89044963
H        4.74457806       0.81521965       0.89057964
H        5.47223782       4.89541816       0.01914999
