16
Properties=species:S:1:pos:R:3 atomization_energy=-1565.94 smiles=C.C.C.C.C.O.H.H.H.H.H.H.H.H.H.H pbc="F F F"
C        1.14073952      -0.38233986       0.03238999
C        2.66072889      -0.36524984       0.00364000
C        3.20416866       1.06228961      -0.03332999
C        4.72856815       1.07510955      -0.07509997
C        5.29737781       2.47256901      -0.11465996
O        4.62803837       3.50108862      -0.08743996
H        0.77383972      -1.41305945       0.06145998
H        0.72631969       0.10067996      -0.85827966
H        0.75895968       0.13940994       0.91571966
H        3.00972876      -0.91978963      -0.87522964
H        3.04332868      -0.88616965       0.88909966
H        2.85379889       1.61415939       0.84789964
H        2.80683878       1.58702937      -0.91119964
H        5.09058780       0.54795978      -0.96464959
H        5.14113783       0.57653976       0.80876968
H        6.39810731       2.52529892      -0.16713994
