16
Properties=species:S:1:pos:R:3 atomization_energy=-1611.5 smiles=C.C.C.C.C.C.N.H.H.H.H.H.H.H.H.H pbc="F F F"
C        3.96516844      -0.01930999      -2.91848880
C        3.79607849      -0.00979000      -1.73040928
C        3.58344853      -0.01170000      -0.27375989
C        4.25497821       1.17638952       0.41558983
C        5.75519755       1.10890958       0.34810986
C        6.52259746       1.99273917      -0.60175977
N        6.52332720       2.25542913       0.83411970
H        4.11474840      -0.03129999      -3.97453852
H        3.95755838      -0.95122960       0.14903995
H        2.50672911       0.02353999      -0.06994997
H        3.96032848       1.17262953       1.47210938
H        3.88629853       2.11727928      -0.01350999
H        6.15443758       0.13450994       0.60333974
H        5.97952760       2.70450887      -1.21134951
H        7.44312712       1.61812932      -1.03085961
H        7.40208695       1.95171919       1.25819947
