12
Properties=species:S:1:pos:R:3 atomization_energy=-1352.79 smiles=C.C.C.C.C.C.N.H.H.H.H.H pbc="F F F"
C        0.94132964      -0.03355999       0.00651000
C        2.43465901      -0.00212000       0.00918000
C        3.13901875       1.13798949       0.00000000
C        4.54501836       1.13798949       0.00000000
C        5.73517759       1.13798949       0.00000000
C        7.26751718       1.13626960       0.00001000
N        8.42951675       1.13587950       0.00001000
H        0.59049974      -1.07008955      -0.02391999
H        0.54010975       0.48039982      -0.87244964
H        0.54008976       0.42919982       0.91333967
H        2.94457885      -0.96326959       0.01785999
H        2.62849887       2.09748919      -0.00815999
