20
Properties=species:S:1:pos:R:3 atomization_energy=-1912.27 smiles=C.C.C.C.C.C.N.H.H.H.H.H.H.H.H.H.H.H.H.H pbc="F F F"
C        3.65277856      -0.42593983      -0.81448965
C        2.82158880       0.07279997       0.36054985
C        3.11558879       1.53809943       0.73417968
C        2.08718915       2.01842926       1.76392935
C        4.51245803       1.69005937       1.28744946
C        5.62472766       2.23561910       0.42420985
N        5.05304798       3.03504868       1.49875935
H        3.36943857      -1.45318946      -1.06290959
H        4.72073831      -0.42264984      -0.58098975
H        3.48804864       0.19383993      -1.70029935
H        2.99805894      -0.58147978       1.22384949
H        1.76158935      -0.03102999       0.09524997
H        2.99887877       2.15738910      -0.16553993
H        2.16297924       1.44888948       2.69703885
H        1.06749962       1.91078929       1.37804950
H        2.24001900       3.07496875       2.00685925
H        4.75471825       0.96065960       2.05203916
H        5.39618770       2.57134887      -0.58117976
H        6.63065731       1.86383928       0.57408975
H        5.66917782       3.05112875       2.31385920
