16
Properties=species:S:1:pos:R:3 atomization_energy=-1553.44 smiles=C.C.C.C.C.O.H.H.H.H.H.H.H.H.H.H pbc="F F F"
C        1.01409958       0.00023000       0.11073996
C        2.51099906       0.28849988       0.08937996
C        2.93155881       1.74595932       0.05943998
C        2.08300916       2.78947889       0.07743997
C        4.42119840       1.97013924      -0.01674999
O        5.03198790       1.47976941       1.16736956
H        0.84181966      -1.08114961       0.12903995
H        0.51807979       0.40128984      -0.77953969
H        0.53800979       0.42717982       0.99989964
H        2.93762888      -0.21132992      -0.78936970
H        2.95607884      -0.18607992       0.97253961
H        1.00621959       2.66493904       0.12256996
H        2.44334904       3.81404851       0.04431998
H        4.67763811       3.03004874      -0.11633995
H        4.84823827       1.44325947      -0.87614964
H        4.52189825       1.84226925       1.91144926
