18
Properties=species:S:1:pos:R:3 atomization_energy=-1768.31 smiles=C.C.C.C.C.C.N.H.H.H.H.H.H.H.H.H.H.H pbc="F F F"
C        2.75008898      -0.81221969      -1.24369951
C        2.32810911       0.05860998      -0.06692997
C        3.06759891       1.38334947      -0.02843999
C        2.39302915       2.53371896      -0.21136992
C        4.52319826       1.32944949       0.19107992
C        5.13132820       2.08075912       1.35087948
N        5.01094802       0.63152975       1.37899940
H        2.16711924      -1.73842926      -1.25375945
H        3.80810839      -1.08576954      -1.18109953
H        2.58476911      -0.29724988      -2.19550903
H        2.49413904      -0.48499982       0.87115966
H        1.24483954       0.22399992      -0.13131995
H        1.32071946       2.54727899      -0.37560983
H        2.90183898       3.49145865      -0.19426993
H        5.12000812       1.21946953      -0.70906969
H        4.48326835       2.61961908       2.03088925
H        6.12802758       2.48705913       1.23686953
H        5.90684763       0.18296992       1.18423954
