14
Properties=species:S:1:pos:R:3 atomization_energy=-1518.39 smiles=C.C.C.C.C.C.N.H.H.H.H.H.H.H pbc="F F F"
C        1.04777961      -0.11772995       0.34021987
C        2.49854903      -0.06287998      -0.07551997
C        3.07618877      -1.17695953      -0.56381975
C        3.21815867       1.21707957       0.05127998
C        2.74770899       2.25777909       0.76449968
C        4.47124831       1.39708941      -0.62904978
N        5.48456773       1.55443940      -1.17479957
H        0.46501982       0.65053975      -0.18016993
H        0.94608962       0.02788999       1.42092941
H        0.58716979      -1.08299957       0.10054996
H        2.52211904      -2.10767921      -0.65388977
H        4.11356850      -1.22043949      -0.88398963
H        1.81401925       2.22552913       1.31405943
H        3.30183878       3.19179863       0.82910967
