16
Properties=species:S:1:pos:R:3 atomization_energy=-1657.07 smiles=C.C.C.C.C.C.N.H.H.H.H.H.H.H.H.H pbc="F F F"
C        0.79978966       0.30106989       0.83744965
C        1.77068930       0.07692997      -0.05689998
C        2.95383890       0.98066959      -0.25099990
C        4.29003812       0.28444990       0.03422998
C        4.45325809      -0.22310991       1.46938938
C        4.45487806       0.87038967       2.44882893
N        4.45927821       1.73768929       3.22128883
H       -0.04189999      -0.37912986       0.92851967
H        0.81409968       1.16665950       1.49408945
H        1.70266937      -0.79802971      -0.70075973
H        2.86176877       1.88391930       0.36383985
H        2.95232895       1.32050952      -1.29395948
H        5.10208805       0.98520960      -0.19945992
H        4.40609839      -0.56512979      -0.65104972
H        5.40541798      -0.76252973       1.54091936
H        3.66968854      -0.94755963       1.71597935
