18
Properties=species:S:1:pos:R:3 atomization_energy=-1764.33 smiles=C.C.C.C.C.N.C.H.H.H.H.H.H.H.H.H.H.H pbc="F F F"
C        0.95233961       0.02441999      -0.69319970
C        2.41889916       0.01184000      -0.41146983
C        3.21606886       1.08520962      -0.52967977
C        4.65516802       1.11266956      -0.26258989
C        5.59968781       0.53151977      -1.29201943
N        5.46534766       1.97141919      -1.12282956
C        6.59476723       2.58227910      -0.42978984
H        0.72080972      -0.68157972      -1.49696944
H        0.59587976       1.01482957      -0.99568962
H        0.39828984      -0.27839988       0.20103991
H        2.84412880      -0.93789964      -0.09787996
H        2.77700894       2.03146924      -0.84538964
H        4.92984825       1.03681961       0.78417969
H        5.18816783       0.12563995      -2.20899917
H        6.50395725       0.04582998      -0.94563965
H        6.27208753       3.51352855       0.04752998
H        7.37594695       2.83503882      -1.15443960
H        7.04809699       1.94944922       0.34307986
