20
Properties=species:S:1:pos:R:3 atomization_energy=-1915.97 smiles=C.C.C.C.C.C.N.H.H.H.H.H.H.H.H.H.H.H.H.H pbc="F F F"
C        1.07626952      -0.24924990      -0.40980984
C        2.58511909      -0.14977994      -0.56291981
C        3.19427879       0.78841967       0.47715983
C        4.67972792       0.90247964       0.30098987
C        5.56262792       1.15785957       1.49559940
C        5.59128771      -0.18087992       0.81454971
N        6.76114739      -0.56166976       0.02975999
H        0.66349974      -0.93700960      -1.15503952
H        0.60238978       0.72784970      -0.55009980
H        0.80596969      -0.62306977       0.58329978
H        2.82492892       0.20368991      -1.57298940
H        3.02366880      -1.14988956      -0.46605980
H        2.95111877       0.42836985       1.48466943
H        2.75386890       1.78726936       0.38058985
H        4.93876816       1.40572948      -0.62392978
H        5.11122799       1.20739951       2.47978896
H        6.41021770       1.82205928       1.37259940
H        5.13288811      -1.00510958       1.35600950
H        7.19280694       0.24822990      -0.41391984
H        6.49328767      -1.18639950      -0.72986974
