11
Properties=species:S:1:pos:R:3 atomization_energy=-1086.74 smiles=C.O.C.C.C.H.H.H.H.H.H pbc="F F F"
C        1.00179963      -0.06377997       0.02998999
O        2.42108914      -0.00822000       0.02888999
C        2.89400889       1.33854944       0.00000000
C        4.33800832       1.33854944       0.00000000
C        5.52816805       1.33854944       0.00000000
H        0.69998974      -1.11335956       0.05270998
H        0.59930976       0.39602984      -0.87671965
H        0.59929979       0.43465983       0.91657967
H        2.51442899       1.87433929       0.87740965
H        2.51442899       1.83618932      -0.89958963
H        6.59349750       1.32737949       0.00024000
