16
Properties=species:S:1:pos:R:3 atomization_energy=-1492.09 smiles=C.C.O.C.C.O.H.H.H.H.H.H.H.H.H.H pbc="F F F"
C        1.05354961      -0.02192999       0.08506997
C        2.56720887      -0.08871996       0.04255999
O        3.07656878       1.24346951       0.01388000
C        4.50942804       1.25695952      -0.02809999
C        4.96487788       2.71193902      -0.05298998
O        4.51063822       3.37774860       1.12448952
H        0.61938978      -1.02534957       0.10707996
H        0.66661976       0.51211978      -0.78902968
H        0.71684970       0.52849981       0.96963963
H        2.89144898      -0.62751976      -0.85449968
H        2.94238886      -0.60906975       0.93057964
H        4.86106830       0.73474970      -0.92391966
H        4.89329807       0.75953973       0.86943964
H        4.54214834       3.23895884      -0.91408966
H        6.05544752       2.78099880      -0.09116996
H        3.56521861       3.14041869       1.19960954
