17
Properties=species:S:1:pos:R:3 atomization_energy=-1776.13 smiles=C.C.C.C.C.C.C.H.H.H.H.H.H.H.H.H.H pbc="F F F"
C        1.03946959      -0.14972994       0.04338998
C        2.51365913       0.20920991      -0.07063997
C        2.86485882       1.48305943       0.66875971
C        3.83854837       1.23831955       1.56140942
C        4.29098840      -0.15975994       1.57577943
C        3.35623862      -1.25378948       2.00146920
C        3.41614862      -0.85444966       0.54556977
H        0.83918967      -1.11379950      -0.43671983
H        0.41608983       0.60846977      -0.44306981
H        0.71482972      -0.22727990       1.08704962
H        2.77771900       0.33190988      -1.12783959
H        2.40072903       2.44170915       0.49210979
H        4.26610854       1.98833927       2.21468924
H        5.35761786      -0.34165987       1.55109941
H        3.79139851      -2.20713923       2.28025903
H        2.48277909      -0.99074960       2.58683898
H        3.87216848      -1.52319940      -0.17038993
