20
Properties=species:S:1:pos:R:3 atomization_energy=-1920.18 smiles=C.C.C.C.C.C.N.H.H.H.H.H.H.H.H.H.H.H.H.H pbc="F F F"
C        0.55659979       0.69816974      -0.77311969
C        2.04930919       0.72832969      -0.83350969
C        2.82837878       1.24801955       0.12775995
C        4.32991807       1.27894956       0.06306998
C        4.90142818       2.69860886       0.12328995
C        4.51566819       3.54495868      -1.09076961
N        5.15171808       4.85734793      -1.01273957
H        0.13972995       1.22318952      -1.63780939
H        0.16937993       1.17372957       0.13313995
H        0.20328992      -0.33687986      -0.79509970
H        2.50222903       0.29605988      -1.72349932
H        2.37301902       1.67123937       1.02137959
H        4.69404822       0.77572968      -0.84086969
H        4.71677822       0.70767973       0.91547963
H        5.99527762       2.62530890       0.18288993
H        4.56825806       3.19275875       1.04528961
H        3.43046867       3.68013859      -1.14204950
H        4.83598809       3.04881890      -2.01291923
H        4.83170805       5.34109773      -0.17448993
H        4.84442806       5.42472788      -1.80177929
