14
Properties=species:S:1:pos:R:3 atomization_energy=-1450.68 smiles=C.C.C.C.C.C.H.H.H.H.H.H.H.H pbc="F F F"
C        1.56523942      -0.53088976       1.10831963
C        2.33250901      -0.10877996       0.09549996
C        3.08514881       1.19314948       0.09383996
C        4.59697841       0.97280960       0.00652000
C        5.32019815       2.25303904      -0.02432999
C        5.91475770       3.29776867      -0.04994998
H        1.03873960      -1.47872942       1.04893958
H        1.44198949       0.05379998       2.01487922
H        2.41758905      -0.72819968      -0.79539966
H        2.84657894       1.77852936       0.99136964
H        2.74348900       1.78811934      -0.76273967
H        4.84117804       0.39666985      -0.89435962
H        4.93876816       0.38185986       0.86503968
H        6.44208764       4.22264827      -0.07240997
