14
Properties=species:S:1:pos:R:3 atomization_energy=-1507.18 smiles=C.C.C.C.C.C.N.H.H.H.H.H.H.H pbc="F F F"
C        0.99999962       0.00000000       0.00000000
C        2.44399905       0.00000000       0.00000000
C        3.63415853       0.00000000       0.00000000
C        5.07815797       0.00000000       0.00000000
C        5.63371771       1.42123940       0.00105000
C        7.09959729       1.40384949       0.00104000
N        8.26158676       1.38564947       0.00103000
H        0.60600979       1.02088962       0.01166999
H        0.60591977      -0.52050980       0.87825963
H        0.60592973      -0.50028980      -0.88992963
H        5.44964761      -0.54334982      -0.87800963
H        5.44964761      -0.54464977       0.87719965
H        5.27318782       1.96757922       0.88140967
H        5.27318782       1.96887923      -0.87849966
