17
Properties=species:S:1:pos:R:3 atomization_energy=-1791.61 smiles=C.C.C.C.C.C.C.H.H.H.H.H.H.H.H.H.H pbc="F F F"
C        1.00613960       0.07388997       0.00655000
C        2.49133892       0.00672000       0.00668000
C        3.24718862      -1.10659961       0.00939000
C        4.70071835      -0.74184973       0.00506000
C        4.64239803       0.75502969      -0.00003000
C        3.36372857       1.16896959       0.00256000
C        2.90437894       2.58388898      -0.00135000
H        0.56150978      -0.92700965       0.00901000
H        0.64271976       0.59569978      -0.88451965
H        0.64250975       0.60118976       0.89415965
H        2.87628893      -2.12040920       0.01282000
H        5.20207784      -1.12206954      -0.88898964
H        5.20493777      -1.11563951       0.90097967
H        5.51156768       1.39534946      -0.00360000
H        1.81514931       2.66921883      -0.05199998
H        3.31479876       3.11693875      -0.86530967
H        3.23312872       3.09414870       0.90996966
