14
Properties=species:S:1:pos:R:3 atomization_energy=-1499.52 smiles=C.C.C.C.C.C.N.H.H.H.H.H.H.H pbc="F F F"
C        0.99196962      -0.00910999       0.08896997
C        2.51999896       0.00000000       0.00000000
C        2.97855878      -0.74977968      -1.25940953
C        4.42391803      -1.03644956      -1.23888957
C        5.60233780      -1.26688951      -1.22480949
C        3.00201878       1.36116943       0.00000000
N        3.38622869       2.44615901       0.00000000
H        0.64773976       0.51331981       0.98899962
H        0.60989979      -1.03472961       0.13211994
H        0.53611977       0.48636982      -0.77623971
H        2.90689897      -0.51779980       0.88753968
H        2.73062894      -0.17847992      -2.16313922
H        2.44369903      -1.70507939      -1.33394944
H        6.64999749      -1.46429948      -1.21512955
