18
Properties=species:S:1:pos:R:3 atomization_energy=-1802.17 smiles=C.C.C.C.C.C.N.H.H.H.H.H.H.H.H.H.H.H pbc="F F F"
C        0.93372961      -0.56570977       0.61103976
C        2.31916901      -0.42455983      -0.02613999
C        2.71368893      -1.74046935      -0.69789975
C        2.31881903       0.76446972      -1.00938962
C        3.65951859       1.05689956      -1.68852936
C        4.69701816       1.45684940      -0.72872970
N        5.51817776       1.77229930       0.02696999
H        0.65032975       0.35372985       1.13417954
H        0.92233963      -1.38115948       1.34205950
H        0.16841993      -0.77680972      -0.14371995
H        3.03407872      -0.22439990       0.78128968
H        2.07442914      -1.95300923      -1.56135933
H        2.62307905      -2.57712902       0.00339000
H        3.75306863      -1.71745927      -1.03889957
H        1.98921928       1.66542932      -0.47443982
H        1.57206940       0.58085974      -1.79304925
H        3.51298856       1.87191930      -2.40761894
H        3.99589835       0.19318992      -2.27092908
