15
Properties=species:S:1:pos:R:3 atomization_energy=-1645.08 smiles=C.C.C.C.C.C.C.H.H.H.H.H.H.H.H pbc="F F F"
C        1.06008954       0.00233000       0.28138988
C        2.37602908       0.00181000       0.04614998
C        3.23313882      -1.22116948      -0.21692991
C        4.60586804      -0.66692974      -0.50081979
C        4.62531824       0.67082971      -0.39952983
C        3.29636874       1.12926955      -0.04900998
C        3.00569877       2.41947901       0.16255994
H        0.50360979       0.91793967       0.44509981
H        0.50129979      -0.92724962       0.30954989
H        2.86463879      -1.78416934      -1.08011959
H        3.26648868      -1.87310930       0.66275972
H        5.45833790      -1.28167953      -0.75046968
H        5.48326773       1.30894947      -0.55320979
H        2.00891915       2.74603881       0.43533983
H        3.76445861       3.19017866       0.07435997
