16
Properties=species:S:1:pos:R:3 atomization_energy=-1628.17 smiles=C.C.C.C.C.C.N.H.H.H.H.H.H.H.H.H pbc="F F F"
C        2.64812898      -1.24145957       0.52989980
C        2.24062914      -0.02351999       0.15003994
C        3.06650884       1.17562949       0.03915999
C        2.47397903       2.32849896      -0.32061989
C        4.50550833       1.06385962       0.36096986
C        5.44322780       0.48841979      -0.67296973
N        5.46701810       1.90719925      -0.35919985
H        1.93936921      -2.06299916       0.57633979
H        3.67355855      -1.46440937       0.80213968
H        1.18720948       0.09343996      -0.10139996
H        1.41596947       2.39939899      -0.54695979
H        3.05511886       3.24222880      -0.40891983
H        4.72733829       0.89893963       1.41041944
H        5.05092789       0.22591992      -1.64815939
H        6.28428775      -0.10321996      -0.33484985
H        6.25271757       2.13892905       0.24895991
