14
Properties=species:S:1:pos:R:3 atomization_energy=-1524.75 smiles=C.C.C.C.C.C.N.H.H.H.H.H.H.H pbc="F F F"
C        0.84978966      -0.26370990      -0.42482983
C        2.34379907      -0.26185990      -0.37159985
C        3.06448868       0.66340972       0.27824990
C        4.50991807       0.64369975       0.31592987
C        5.23415773       1.56713935       0.96473961
C        6.63946720       1.53327940       0.99253964
N        7.78991707       1.50555942       1.01529960
H        0.46308980      -1.19301953       0.00456000
H        0.51417979      -0.19880992      -1.46451939
H        0.41367984       0.57481975       0.12750994
H        2.83740897      -1.07265954      -0.90166966
H        2.55463899       1.46922940       0.80439969
H        5.01166817      -0.16629994      -0.21270992
H        4.75538793       2.38134898       1.49712942
