14
Properties=species:S:1:pos:R:3 atomization_energy=-1475.95 smiles=C.C.C.C.C.C.N.H.H.H.H.H.H.H pbc="F F F"
C        0.99999962       0.00000000       0.00000000
C        2.44399905       0.00000000       0.00000000
C        3.63415853       0.00000000       0.00000000
C        5.00215781       0.00000000       0.00000000
C        6.19231754       0.00000000       0.00000000
C        7.63631698       0.00000000       0.00000000
N        8.14150686       1.36484942       0.01781999
H        0.60592973       1.02084963       0.01167999
H        0.60591977      -0.52053979       0.87823963
H        0.60591977      -0.50030980      -0.88992963
H        8.01876688      -0.51609981      -0.88697963
H        8.01845702      -0.53307981       0.87654964
H        7.79820716       1.85529925      -0.80643966
H        9.15571652       1.34561951      -0.06061997
