18
Properties=species:S:1:pos:R:3 atomization_energy=-1769.89 smiles=C.C.C.C.C.C.N.H.H.H.H.H.H.H.H.H.H.H pbc="F F F"
C        0.83424965      -0.11802996       0.13303995
C        2.31910921       0.00183000       0.25994989
C        3.09128878       1.07941962       0.00374000
C        2.52159899       2.42129908      -0.38891984
C        4.55927810       1.04290956       0.15519994
C        5.36841764       0.10283996      -0.70612972
N        5.37562775       1.53607940      -0.95328964
H        0.59007980      -1.02053957      -0.43682981
H        0.37179986       0.72440973      -0.38519984
H        0.38169985      -0.20994992       1.12487950
H        2.81391894      -0.91550965       0.57763974
H        1.47930940       2.54656893      -0.08342997
H        2.58554906       2.55829905      -1.47309941
H        3.08109889       3.23061878       0.09399996
H        4.92454828       1.26369954       1.15329957
H        4.86197821      -0.50008980      -1.44974943
H        6.27163737      -0.32769986      -0.29345989
H        6.23064767       1.96649924      -0.59977979
