22
Properties=species:S:1:pos:R:3 atomization_energy=-2062.4 smiles=C.C.C.C.C.C.N.H.H.H.H.H.H.H.H.H.H.H.H.H.H.H pbc="F F F"
C        0.97517963       0.74763972       0.12518995
C        2.45551898       0.56119979      -0.16659993
C        3.21332879       1.88616920      -0.08923996
C        4.70310792       1.69120937      -0.37677987
C        5.46456796       3.01652883      -0.30262987
C        6.95263704       2.81337896      -0.58207976
N        7.66203710       4.08457841      -0.49967979
H        0.45290981      -0.21237992       0.06392997
H        0.51582981       1.43089940      -0.59635976
H        0.82148970       1.15426953       1.12995955
H        2.57271903       0.12278995      -1.16451960
H        2.87630886      -0.15143995       0.55229975
H        3.08628884       2.32482905       0.90779967
H        2.78933885       2.59492898      -0.81070967
H        4.83040803       1.25015957      -1.37320941
H        5.12672820       0.98334961       0.34645987
H        5.33078798       3.45973859       0.69210975
H        5.04146799       3.72101853      -1.02963959
H        7.09603740       2.38152915      -1.57874937
H        7.38158706       2.11818918       0.14758994
H        7.29134734       4.73007810      -1.19594948
H        8.64248685       3.94040844      -0.73756969
