12
Properties=species:S:1:pos:R:3 atomization_energy=-1214.72 smiles=C.C.O.C.C.O.H.H.H.H.H.H pbc="F F F"
C        3.02789888      -1.47512941       1.06155962
C        2.45153896      -0.58995975       0.24054991
O        3.00114874       0.49626982      -0.37751986
C        4.38451852       0.73939972      -0.14607994
C        4.74412790       1.98230918      -0.91957963
O        5.78550758       2.10977911      -1.56034937
H        2.44162916      -2.29314912       1.47091939
H        4.07095832      -1.43066940       1.35114948
H        1.40286944      -0.66474973      -0.03092999
H        4.99542813      -0.09302996      -0.50955979
H        4.57104834       0.94009965       0.91368965
H        4.05164842       2.83358892      -0.80032971
