16
Properties=species:S:1:pos:R:3 atomization_energy=-1624.03 smiles=C.C.C.C.C.C.N.H.H.H.H.H.H.H.H.H pbc="F F F"
C        0.96722961       0.00090000      -0.00016000
C        2.46757915      -0.01462999       0.00112000
C        3.15074887      -1.16945949       0.00871000
C        3.18499881       1.21762952       0.00000000
C        3.78007842       2.24833912       0.00000000
C        4.50207814       3.49887870       0.00000000
N        3.57328866       4.61899834      -0.04806998
H        0.57573975       1.02330960       0.04259998
H        0.57358976      -0.53934980       0.86742964
H        0.57826975      -0.46494983      -0.91208962
H        2.63847908      -2.12612904       0.01191000
H        4.23654844      -1.18873949       0.01268999
H        5.17677810       3.55098864      -0.86105966
H        5.11759785       3.58467865       0.90126965
H        3.01466890       4.54545842      -0.89662966
H        4.10134834       5.48512791      -0.12450995
