13
Properties=species:S:1:pos:R:3 atomization_energy=-1253.73 smiles=O.C.C.C.C.H.H.H.H.H.H.H.H pbc="F F F"
O        3.04505892      -0.94727961      -0.57150979
C        2.36694895       0.10123996       0.10243996
C        3.24893879       1.30343944       0.11074996
C        3.28970871       2.23153916      -1.07558961
C        2.66079904       2.68683887       0.21344991
H        2.44377902      -1.71026934      -0.57816976
H        2.15591927      -0.21897991       1.12785953
H        1.41856949       0.29212989      -0.41037982
H        4.18196843       1.10916960       0.62754973
H        2.64071902       2.02003926      -1.91775919
H        4.25040849       2.64943883      -1.35263949
H        3.19518870       3.42092853       0.80527969
H        1.58282944       2.79744878       0.23777991
