10
Properties=species:S:1:pos:R:3 atomization_energy=-1187.58 smiles=C.C.C.C.C.C.N.H.H.H pbc="F F F"
C        0.99999962       0.00000000       0.00000000
C        2.19015911       0.00000000       0.00000000
C        3.63415853       0.00000000       0.00000000
C        4.11617835       1.36116943       0.00000000
C        4.51345827       2.48306901       0.00000000
C        5.04118791       3.92468845       0.00000000
N        5.44846771       5.01174791       0.00000000
H       -0.06559997       0.00303000       0.00000000
H        4.01198851      -0.53451980      -0.87853966
H        4.01198851      -0.53451980       0.87853966
