16
Properties=species:S:1:pos:R:3 atomization_energy=-1551.53 smiles=C.C.C.O.C.C.H.H.H.H.H.H.H.H.H.H pbc="F F F"
C        1.26505947      -1.39969940       0.87407964
C        2.19540911      -1.18928957      -0.31764988
C        3.10587883      -2.40033893      -0.49436980
O        1.36187949      -1.03318957      -1.47161948
C        1.81568930      -0.31852989      -2.54072898
C        2.98677872       0.30213987      -2.71864901
H        0.59690977      -0.53895976       0.99033963
H        1.82973923      -1.52926935       1.80232925
H        0.62474974      -2.27669914       0.72559972
H        2.78094884      -0.28474989      -0.11957996
H        2.52152909      -3.30060866      -0.71550969
H        3.70288852      -2.58216909       0.40430984
H        3.79050854      -2.25770919      -1.33741950
H        1.04704956      -0.30710988      -3.30663862
H        3.77760860       0.30814986      -1.98003921
H        3.17918862       0.83274967      -3.64598858
