12
Properties=species:S:1:pos:R:3 atomization_energy=-1247.44 smiles=C.C.C.C.O.O.H.H.H.H.H.H pbc="F F F"
C        1.01989960       0.01128000      -0.11900995
C        2.50737911      -0.08634997       0.02649999
C        3.17295882      -1.25397949       0.02545999
C        3.20621885       1.20494950       0.24927991
O        4.40091803       1.28068951      -0.37101987
O        2.71911885       2.12902908       0.87854968
H        0.76090970       0.66449973      -0.95885960
H        0.56779977       0.41844985       0.79136968
H        0.56416979      -0.96661960      -0.30759987
H        2.64577902      -2.19496904      -0.10692996
H        4.24146840      -1.32062950       0.20697992
H        4.57910831       0.52754978      -0.96278959
