20
Properties=species:S:1:pos:R:3 atomization_energy=-1914.89 smiles=C.C.C.C.N.C.C.H.H.H.H.H.H.H.H.H.H.H.H.H pbc="F F F"
C        0.97113961      -0.06075998      -0.00048000
C        2.47943897      -0.14727993      -0.16678993
C        3.16785870       1.14675952       0.26568989
C        4.65050796       1.06085952       0.06621998
N        5.55129774       1.78703936       0.96172961
C        5.52417769       0.33007988       1.05737956
C        6.69904716      -0.45116983       0.58133980
H        0.50231981      -1.00430963      -0.29733990
H        0.55366979       0.73688972      -0.62293976
H        0.70179971       0.13897994       1.04150957
H        2.71800884      -0.36719986      -1.21425951
H        2.86008875      -0.98732963       0.42674984
H        2.92514883       1.35627950       1.31491950
H        2.78254887       1.98702916      -0.32438987
H        4.93421812       1.05499957      -0.98046962
H        5.04348815       2.21049902       1.74021929
H        5.07065817      -0.09735996       1.94321928
H        7.24004739       0.05882998      -0.22305992
H        6.37335765      -1.42655943       0.20592992
H        7.39860730      -0.62111976       1.40603947
