18
Properties=species:S:1:pos:R:3 atomization_energy=-1768.35 smiles=C.C.C.C.C.C.N.H.H.H.H.H.H.H.H.H.H.H pbc="F F F"
C        0.99999962       0.00000000       0.00000000
C        2.44399905       0.00000000       0.00000000
C        3.63415853       0.00000000       0.00000000
C        5.07815797       0.00000000       0.00000000
C        5.65272784       1.41924939      -0.01441999
C        5.30805798       2.18374913      -1.29624951
N        5.93010752       3.50419860      -1.28151955
H        0.60615973       1.02094961       0.01121000
H        0.60587977      -0.52011979       0.87845967
H        0.60595976      -0.50057979      -0.88976966
H        5.45819761      -0.55886977      -0.86307963
H        5.44650811      -0.51716978       0.89377964
H        6.74365730       1.35164947       0.08401997
H        5.28804811       1.97627922       0.85858965
H        4.22475826       2.30628902      -1.39804940
H        5.66537771       1.63080934      -2.17198924
H        5.57366792       4.03752847      -0.48939982
H        5.64504789       4.01601849      -2.11538919
