14
Properties=species:S:1:pos:R:3 atomization_energy=-1399.39 smiles=C.C.O.C.C.C.H.H.H.H.H.H.H.H pbc="F F F"
C        1.41200950       0.14924995      -1.48320944
C        2.60441890       0.22871991      -0.89023963
O        3.43116864       1.30587948      -1.07591954
C        4.65859820       1.18818953      -0.32914988
C        5.80499765       0.50381979      -1.02323958
C        5.80763754       1.99637917      -0.86831967
H        0.76948972      -0.71045972      -1.33179945
H        1.06091958       0.94450964      -2.13224908
H        2.98734874      -0.54642977      -0.24074990
H        4.59252829       1.11520953       0.75296972
H        5.63161781       0.09726996      -2.01273920
H        6.49047721      -0.07371997      -0.41558983
H        6.49579736       2.43456893      -0.15585994
H        5.63285777       2.60053906      -1.75098929
