13
Properties=species:S:1:pos:R:3 atomization_energy=-1251.24 smiles=C.O.C.C.C.H.H.H.H.H.H.H.H pbc="F F F"
C        1.19671947      -0.05272998      -0.59877974
O        2.53491905      -0.09327997      -0.11151996
C        3.12473882       1.14129957      -0.10604996
C        4.44859804       1.27930951       0.01099000
C        5.15455781       2.59311900       0.03683999
H        0.80892966      -1.07548956      -0.61297975
H        1.16569950       0.34151986      -1.62035942
H        0.56079978       0.54641980       0.06183998
H        2.44845900       1.98279921      -0.18323993
H        5.06428782       0.38714986       0.09462996
H        4.46273818       3.43723872      -0.04951998
H        5.86725786       2.64981884      -0.79180968
H        5.70754782       2.70086899       0.97500962
