18
Properties=species:S:1:pos:R:3 atomization_energy=-1766.74 smiles=C.C.C.C.C.C.N.H.H.H.H.H.H.H.H.H.H.H pbc="F F F"
C        2.23911919       3.16707875       1.56931937
C        2.80043891       1.97077928       1.34954945
C        3.16276867       1.45087937      -0.01425999
C        4.65084810       1.11315959      -0.15501995
C        5.53157806       2.32230902      -0.02135999
C        6.36463759       2.53120902       1.21773954
N        6.98204726       2.13077925      -0.04211999
H        1.99146918       3.48794872       2.57631904
H        2.01032918       3.84865853       0.75590969
H        3.00319893       1.31750943       2.19579921
H        2.87641888       2.17193902      -0.79010966
H        2.57716889       0.54189980      -0.19830993
H        4.81060811       0.67652975      -1.14888957
H        4.92833830       0.34194986       0.57510981
H        5.16392788       3.18498871      -0.56405978
H        6.34987773       1.77718935       1.99490921
H        6.55021764       3.54309849       1.55379936
H        7.44541728       2.92443877      -0.48876981
