20
Properties=species:S:1:pos:R:3 atomization_energy=-1911.75 smiles=C.C.C.C.C.C.N.H.H.H.H.H.H.H.H.H.H.H.H.H pbc="F F F"
C        0.68440974      -0.25550991       0.34712987
C        2.08107921      -0.41057982      -0.23451990
C        2.94627880       0.81489969       0.06265998
C        4.34675815       0.72323973      -0.54888981
C        5.16624782      -0.37922984       0.05343998
C        5.38943784      -1.66923939      -0.69406973
N        6.46108768      -0.69102971      -0.55018976
H        0.08281997      -1.14461950       0.13209995
H        0.17375992       0.61235977      -0.08248997
H        0.72427972      -0.12776995       1.43376941
H        2.00644921      -0.56125978      -1.31773943
H        2.53920893      -1.31111952       0.18919993
H        3.02636874       0.95288963       1.14831956
H        2.45232901       1.70961934      -0.33645985
H        4.86313792       1.67421941      -0.36865985
H        4.26754835       0.60921976      -1.63733930
H        5.13821785      -0.39126983       1.13673957
H        4.98086811      -1.77709927      -1.69111929
H        5.48694772      -2.58788893      -0.12794995
H        7.13195726      -0.98481963       0.16240994
