14
Properties=species:S:1:pos:R:3 atomization_energy=-1385.01 smiles=C.C.C.O.O.C.H.H.H.H.H.H.H.H pbc="F F F"
C        0.67221974      -0.03876998       0.22061992
C        2.03770914      -0.70156972       0.17457994
C        3.06219877       0.15762993      -0.52578980
O        2.85376886       1.26266952      -1.00934963
O        4.26279846      -0.48815980      -0.53770977
C        5.30883769       0.24177990      -1.18057948
H       -0.04783998      -0.68383972       0.73356973
H        0.29644989       0.15878993      -0.78906968
H        0.71639973       0.91693962       0.75388972
H        1.96037920      -1.65389929      -0.36008986
H        2.38375900      -0.88999966       1.19610958
H        5.49331808       1.18619952      -0.65840971
H        5.06156819       0.42087983      -2.23148920
H        6.21975756      -0.36108985      -1.13674954
