18
Properties=species:S:1:pos:R:3 atomization_energy=-1772.84 smiles=C.C.C.C.C.C.N.H.H.H.H.H.H.H.H.H.H.H pbc="F F F"
C        2.32115915      -0.63151978      -1.44907949
C        2.40118904       0.17778993      -0.17957993
C        1.58573932      -0.10076996       0.85229966
C        3.45206873       1.21264952      -0.12706995
C        3.49249851       2.29117917      -1.18010951
C        3.07906888       2.63712885       0.21702991
N        3.96929835       3.44649852       1.04934956
H        3.30622858      -1.03492958      -1.70505933
H        1.97342926      -0.00925999      -2.27949901
H        1.63202937      -1.47766938      -1.35640945
H        0.83631965      -0.88394964       0.79535967
H        1.65103937       0.45338981       1.78367931
H        4.40942815       0.84061969       0.22581991
H        2.72351900       2.32373898      -1.94337926
H        4.46337809       2.62039904      -1.53152936
H        2.02334922       2.86505892       0.35353987
H        4.94669792       3.20231882       0.89616966
H        3.78890850       3.26696861       2.03680920
