14
Properties=species:S:1:pos:R:3 atomization_energy=-1373.15 smiles=C.C.O.C.C.O.H.H.H.H.H.H.H.H pbc="F F F"
C        0.99444960      -0.32658988       0.29169988
C        2.36088896       0.06952997      -0.25131990
O        2.61479905      -0.67364977      -1.43944939
C        2.45876901       1.58190944      -0.48584980
C        3.50449862       2.05289923      -1.46335942
O        1.74283937       2.39075917       0.10739996
H        0.78683970       0.15777994       1.24996956
H        0.93183965      -1.41226940       0.42484982
H        0.20182992      -0.04564998      -0.41008983
H        3.13781867      -0.19656993       0.47483980
H        1.83831925      -0.58353975      -2.01874922
H        4.46497838       1.58742944      -1.23423949
H        3.61638861       3.13915880      -1.38837944
H        3.19190865       1.79899935      -2.48048892
