11
Properties=species:S:1:pos:R:3 atomization_energy=-1131.38 smiles=O.C.C.C.C.H.H.H.H.H.H pbc="F F F"
O        1.05866954       0.00350000       0.20479992
C        2.26373915      -0.00430000       0.07269997
C        3.34674869       1.08988960      -0.01727999
C        4.27252836      -0.00143000      -0.60996974
C        3.32067858      -1.11559951      -0.10665996
H        3.65193855       1.47067942       0.96166962
H        3.10935873       1.91650927      -0.68914972
H        4.35216813       0.04177998      -1.70258938
H        5.28178777      -0.03083999      -0.18928992
H        3.06386870      -1.87856924      -0.84339969
H        3.61544868      -1.58097934       0.83768968
