12
Properties=species:S:1:pos:R:3 atomization_energy=-1357.28 smiles=C.C.C.C.C.C.N.H.H.H.H.H pbc="F F F"
C        0.99999962       0.00000000       0.00000000
C        2.19015911       0.00000000       0.00000000
C        3.63415853       0.00000000       0.00000000
C        4.14339834       1.41102945      -0.02251999
C        4.84035796       1.97602916       0.97678963
C        5.30794797       3.31686864       0.91097961
N        5.69554795       4.40887807       0.86056963
H       -0.06594997       0.00248000      -0.00020000
H        4.01875830      -0.52585979      -0.88109968
H        4.01278840      -0.53814977       0.87673965
H        3.92535839       1.98608923      -0.92228961
H        5.06818785       1.42373950       1.88182923
