20
Properties=species:S:1:pos:R:3 atomization_energy=-1920.14 smiles=C.C.C.C.C.C.N.H.H.H.H.H.H.H.H.H.H.H.H.H pbc="F F F"
C        2.48869903      -1.28841955      -1.60785931
C        2.42692909      -0.65411977      -0.24587990
C        1.63931934      -1.14844951       0.72185973
C        3.26574859       0.58671975      -0.02903999
C        4.77912827       0.36564985      -0.13981995
C        5.31331808      -0.62643972       0.89270963
N        6.76424754      -0.74654972       0.77120967
H        2.25113899      -0.55204976      -2.38197905
H        1.77700932      -2.11468922      -1.70723935
H        3.48843875      -1.68986937      -1.80157932
H        1.02654960      -2.03128920       0.56302976
H        1.58051935      -0.68346974       1.70244934
H        3.04705889       1.02699957       0.95269962
H        2.96457887       1.34057945      -0.76773968
H        5.27543811       1.33516946      -0.00272000
H        5.03435780       0.02914999      -1.15224949
H        4.86482804      -1.61550937       0.75279971
H        5.06785780      -0.28634989       1.90456920
H        6.99891712      -1.09671958      -0.15690994
H        7.09745702      -1.44868939       1.43096942
