10
Properties=species:S:1:pos:R:3 atomization_energy=-1092.62 smiles=C.C.C.C.O.O.H.H.H.H pbc="F F F"
C        0.99999962       0.00000000       0.00000000
C        2.44399905       0.00000000       0.00000000
C        3.63415853       0.00000000       0.00000000
C        5.07716782       0.01615999       0.00000000
O        5.63425770      -1.21452951       0.00000000
O        5.70761797       1.05896956      -0.00000000
H        0.60591977       1.02084963       0.01167999
H        0.60594973      -0.52055979       0.87823963
H        0.60594973      -0.50031980      -0.88992963
H        4.95010793      -1.91023921       0.00000000
