19
Properties=species:S:1:pos:R:3 atomization_energy=-1899.95 smiles=C.C.C.C.C.C.C.H.H.H.H.H.H.H.H.H.H.H.H pbc="F F F"
C        0.79639971      -0.02227999       0.25638990
C        2.29121903       0.06941997       0.02095999
C        3.06555882       1.07892960       0.90239966
C        4.16346826       0.01239000       1.11662953
C        3.15426864      -1.05687956       0.63700975
C        5.43812768       0.10516995       0.34967987
C        5.53972785       0.63615978      -0.87456966
H        0.37091985      -0.86539963      -0.29726988
H        0.29699988       0.89027962      -0.08458997
H        0.56150978      -0.16069994       1.31677943
H        2.49942891       0.20669992      -1.04869962
H        2.54927897       1.34789945       1.83290927
H        3.35752879       2.00853927       0.40515985
H        4.40604843      -0.10475996       2.18193916
H        3.52453852      -1.79814925      -0.07769997
H        2.67342898      -1.59243935       1.46489940
H        6.32736776      -0.29499987       0.83117966
H        4.69388825       1.04984962      -1.41191942
H        6.50125730       0.66858977      -1.37808950
