14
Properties=species:S:1:pos:R:3 atomization_energy=-1427.56 smiles=C.C.C.C.C.O.H.H.H.H.H.H.H.H pbc="F F F"
C        0.93268963      -0.13737994      -0.02638999
C        2.44332911       0.01780000       0.05576998
C        2.84883882       1.46344938       0.02581999
C        3.51072868       2.06297923       1.02575961
C        3.88650847       3.48760858       0.93182962
O        4.49307798       4.04718847       1.83782922
H        0.66063975      -1.19778948      -0.01851999
H        0.53747977       0.30540989      -0.94700961
H        0.43865982       0.34531986       0.82366966
H        2.90872888      -0.49547980      -0.79341968
H        2.80727885      -0.47422982       0.96545963
H        2.58500908       2.01800926      -0.87267964
H        3.79960861       1.55179938       1.93685927
H        3.59315849       4.01301853       0.00840000
