14
Properties=species:S:1:pos:R:3 atomization_energy=-1337.43 smiles=C.O.C.C.C.O.H.H.H.H.H.H.H.H pbc="F F F"
C        2.39425901      -0.96710963      -0.89403967
O        2.02695919       0.31823987      -0.41294985
C        3.16849887       1.11245962      -0.02756999
C        3.61490869       2.13709914      -1.03012961
C        2.88781895       2.57219898       0.20581992
O        3.70025847       3.21552861       1.19986957
H        1.48653945      -1.49751939      -1.19378952
H        2.89198897      -1.53857937      -0.10478996
H        3.05210880      -0.87471967      -1.76361936
H        3.91684852       0.65969976       0.61612978
H        3.08403880       2.19140915      -1.97339924
H        4.67635829       2.34021899      -1.10049963
H        1.85623931       2.89457890       0.10658996
H        3.62076858       4.18297826       1.13776959
