14
Properties=species:S:1:pos:R:3 atomization_energy=-1335.86 smiles=C.O.C.C.O.C.H.H.H.H.H.H.H.H pbc="F F F"
C        2.00635925      -0.54377979      -1.28052952
O        2.24642923       0.04345998      -0.00962000
C        3.04269886       1.25151951      -0.01911999
C        2.35604899       2.55661903      -0.44328981
O        2.83314885       3.24167871       0.74187970
C        3.21375877       1.96988919       1.32626949
H        1.40333940      -1.44430942      -1.13956959
H        2.95374882      -0.82086966      -1.75154934
H        1.45904948       0.15298994      -1.92157923
H        4.00363836       1.08634952      -0.52193979
H        1.26225948       2.53354889      -0.47493982
H        2.74450892       3.00962883      -1.35951943
H        4.23507836       1.99116916       1.71595928
H        2.51955889       1.67266934       2.11831914
