12
Properties=species:S:1:pos:R:3 atomization_energy=-1229.3 smiles=O.C.C.C.O.C.H.H.H.H.H.H pbc="F F F"
O        0.90687967      -0.02178999       0.13980995
C        2.34276905       0.00850000       0.04551999
C        3.04724890       1.09091962       0.91104963
C        4.05740839      -0.00771000       1.29243944
O        5.18429808      -0.00515000       1.73683932
C        3.09661878      -1.11246959       0.81365968
H        0.62454976      -0.75489967      -0.43537983
H        2.64773888       0.06680998      -1.00790957
H        2.46805909       1.45998941       1.76193934
H        3.47539852       1.92639926       0.35369985
H        3.56022851      -1.87606927       0.18599993
H        2.53577899      -1.57998932       1.62782931
