12
Properties=species:S:1:pos:R:3 atomization_energy=-1240.04 smiles=C.O.C.O.C.C.H.H.H.H.H.H pbc="F F F"
C        2.70391892      -1.65746940      -0.94016961
O        3.93921844      -1.04541956      -0.56848977
C        3.88362836       0.30914989      -0.52314979
O        2.91236876       1.00729963      -0.76049972
C        5.22004787       0.80656967      -0.13351995
C        5.45524785       2.11923913      -0.01148000
H        2.84097895      -2.74199898      -0.91120961
H        2.42736916      -1.36999950      -1.95944923
H        1.91196920      -1.39034952      -0.23309991
H        5.99533767       0.07196997       0.04690998
H        4.67665806       2.85588895      -0.19295992
H        6.43647731       2.48362894       0.27370990
