14
Properties=species:S:1:pos:R:3 atomization_energy=-1356.29 smiles=C.O.C.C.C.O.H.H.H.H.H.H.H.H pbc="F F F"
C        3.16621880      -0.91067965       0.66497973
O        2.98737877       0.34761986       1.30749945
C        3.19163865       1.44633942       0.42272983
C        2.65343904       2.69632905       1.10306962
C        4.66891805       1.65289930       0.13019995
O        5.14868809       1.61848939      -0.99949963
H        2.93447878      -1.69775938       1.38760945
H        4.20306837      -1.03517958       0.33965986
H        2.48695895      -1.00986962      -0.18689993
H        2.65201892       1.28570951      -0.51800980
H        3.14941883       2.86605891       2.06588924
H        1.58383939       2.58808903       1.31262947
H        2.80208890       3.58488859       0.48116981
H        5.30838803       1.83017930       1.01244958
