10
Properties=species:S:1:pos:R:3 atomization_energy=-980.76 smiles=C.C.C.N.O.H.H.H.H.H pbc="F F F"
C       -1.24008953      -0.01213999      -0.16528994
C       -0.40033985      -1.22563953       0.12206995
C        0.92902962      -0.60652978      -0.05938998
N        0.94838962       0.68184971      -0.05401998
O       -0.39243986       1.10573954       0.11936995
H       -1.53724945       0.03879998      -1.21848947
H       -2.13680921       0.03218999       0.45896983
H       -0.57580977      -2.05083920      -0.56961977
H       -0.48954980      -1.57400933       1.15445953
H        1.83311934      -1.22511947      -0.14283995
