16
Properties=species:S:1:pos:R:3 atomization_energy=-1477.44 smiles=C.O.C.C.O.C.H.H.H.H.H.H.H.H.H.H pbc="F F F"
C        1.04935959      -0.16132993      -0.01922999
O        2.46732910      -0.05679998      -0.00715000
C        2.89070890       1.30678951      -0.00746999
C        4.41371829       1.36468944       0.00657000
O        4.83559798       2.72809881       0.02706999
C        6.25314755       2.83271888       0.03787998
H        0.78233969      -1.22027951      -0.00692000
H        0.64110976       0.29228990      -0.92841961
H        0.62184975       0.31825986       0.86605967
H        2.49089911       1.82398923       0.87403965
H        2.50693905       1.81932931      -0.89782962
H        4.81218820       0.86082966      -0.88211967
H        4.79713816       0.83929968       0.88902963
H        6.52011755       3.89267847       0.06767998
H        6.67624751       2.39128907      -0.86998966
H        6.66801748       2.34302920       0.92420966
