14
Properties=species:S:1:pos:R:3 atomization_energy=-1346.49 smiles=O.C.C.C.C.O.H.H.H.H.H.H.H.H pbc="F F F"
O        2.98729878      -0.95484961      -0.63156974
C        2.35982916       0.08893996       0.09642996
C        3.27488879       1.26438954       0.11245996
C        3.31406876       2.22199902      -1.05111960
C        2.71673886       2.65459901       0.25816990
O        3.49720852       3.56760869       1.04163958
H        2.37565917      -1.70991936      -0.62298973
H        2.17282925      -0.25756990       1.11743951
H        1.40140945       0.31994988      -0.37963985
H        4.21104835       1.02990958       0.60513975
H        2.64102889       2.04829923      -1.88323926
H        4.27627850       2.62223904      -1.34590944
H        1.63806942       2.77302892       0.29595990
H        4.45256822       3.44899862       0.90388967
