16
Properties=species:S:1:pos:R:3 atomization_energy=-1486.13 smiles=C.O.C.C.O.C.H.H.H.H.H.H.H.H.H.H pbc="F F F"
C        2.20401916       4.08986828       2.18015922
O        2.28968915       2.71225897       2.51179895
C        3.22902884       1.97325920       1.73144927
C        2.82160899       1.89224925       0.26454989
O        4.55473815       2.49452914       1.81041924
C        5.11552822       2.32445914       3.10595881
H        1.50349939       4.56080824       2.87649886
H        1.81405924       4.23192826       1.16822950
H        3.17343875       4.58561795       2.28796901
H        3.22723880       0.94928962       2.12491911
H        2.92947884       2.86013897      -0.23587991
H        1.78105936       1.57158934       0.16186993
H        3.47006853       1.19237949      -0.27309988
H        6.13481781       2.71841888       3.09019871
H        5.15826809       1.26378949       3.37154856
H        4.54276806       2.87829874       3.85461859
