10
Properties=species:S:1:pos:R:3 atomization_energy=-1076.21 smiles=C.O.C.O.C.C.H.H.H.H pbc="F F F"
C        1.47589940      -0.40112983       0.92731964
O        2.83533884      -0.24083990       0.52532980
C        3.23021884       1.05582961       0.44518984
O        2.54546902       2.04008926       0.67886974
C        4.60773832       1.18025952       0.03675998
C        5.75558766       1.28604952      -0.30349987
H        1.25635947      -1.47186942       0.96148964
H        0.80273966       0.06666997       0.20189992
H        1.31889952       0.01590000       1.92713922
H        6.77257749       1.38340940      -0.60486975
