12
Properties=species:S:1:pos:R:3 atomization_energy=-1211.2 smiles=O.C.C.C.O.C.H.H.H.H.H.H pbc="F F F"
O        0.99186964      -0.05954998       0.66527975
C        2.03022916       0.03066999       0.01112000
C        3.02168875       1.19951958       0.02562999
C        2.47163891       2.61942908      -0.13637995
O        3.30368861       3.09149872       0.95547962
C        3.51197873       1.71834936       1.37967943
H        2.30902908      -0.79458968      -0.66567976
H        3.85706847       1.00823963      -0.66160971
H        1.40922945       2.76077899       0.08666997
H        2.72086902       3.11090880      -1.08089954
H        4.56289804       1.51601944       1.60366935
H        2.89350876       1.47563937       2.24968910
