14
Properties=species:S:1:pos:R:3 atomization_energy=-1356.07 smiles=O.C.C.C.C.O.H.H.H.H.H.H.H.H pbc="F F F"
O        0.93552962       0.02082999       0.00151000
C        2.37416915       0.03053998       0.00145000
C        3.05214892       1.05846957       0.93119961
C        4.11982833      -0.01209000       1.23971949
C        3.07416886      -1.07785959       0.84772970
O        3.54999849      -2.23203903       0.12688996
H        0.69584974      -0.83135971      -0.40486986
H        2.75009882       0.07784997      -1.02875958
H        2.44619913       1.34491942       1.79844927
H        3.42665872       1.96285923       0.44497983
H        4.99201813       0.02792999       0.57848978
H        4.46155828      -0.04290998       2.27749903
H        2.46196907      -1.40257951       1.69945934
H        4.16579829      -1.89015919      -0.54375979
