14
Properties=species:S:1:pos:R:3 atomization_energy=-1337.53 smiles=C.O.C.C.O.C.H.H.H.H.H.H.H.H pbc="F F F"
C        3.45647873      -0.25068990      -1.92093919
O        2.75388884      -0.03363999      -0.70218970
C        3.31114879       0.84614966       0.18788992
C        4.44573812       1.55197942       0.07406997
O        5.00387820       2.43043902       0.96489965
C        4.31123849       2.63269893       2.19191912
H        2.88991885      -0.97674963      -2.51148908
H        4.44947817      -0.67109970      -1.73104932
H        3.52834872       0.67494971      -2.50127900
H        2.66344902       0.89600962       1.05545957
H        5.09223805       1.50387940      -0.79440970
H        4.87745822       3.35910863       2.78238889
H        4.25325832       1.70197937       2.76575900
H        3.31276876       3.04582878       2.01548922
