14
Properties=species:S:1:pos:R:3 atomization_energy=-1389.93 smiles=C.O.C.C.C.C.H.H.H.H.H.H.H.H pbc="F F F"
C        1.00113959      -0.06273998       0.03003999
O        2.42005912      -0.00665000       0.02890999
C        2.89400889       1.33854944       0.00000000
C        4.33800832       1.33854944       0.00000000
C        5.52816805       1.33854944       0.00000000
C        6.97216748       1.33854944       0.00000000
H        0.69699974      -1.11106953       0.05265998
H        0.59812973       0.39880983      -0.87731963
H        0.59814979       0.43736984       0.91707966
H        2.51464903       1.87451932       0.87739969
H        2.51464903       1.83633934      -0.89960963
H        7.36624734       2.35939919      -0.01167999
H        7.36621706       0.81798968      -0.87823963
H        7.36621706       0.83821964       0.88991967
