14
Properties=species:S:1:pos:R:3 atomization_energy=-1350.25 smiles=C.O.C.C.C.O.H.H.H.H.H.H.H.H pbc="F F F"
C        1.96601918       0.15680994      -0.87389966
O        3.28310873       0.57118977      -0.52828980
C        3.45314871       1.85801926      -0.05686997
C        2.48489892       2.77910884       0.08684997
C        4.88984819       2.16587904       0.28865989
O        5.70995758       1.93946927      -0.85291964
H        2.01785925      -0.88437967      -1.20588956
H        1.57242935       0.75538970      -1.70130931
H        1.30046950       0.20008992      -0.00538000
H        1.44693947       2.59521890      -0.15936993
H        2.71745902       3.77414864       0.45633982
H        5.23157789       1.50689943       1.09392955
H        5.03255818       3.20157874       0.61110978
H        5.33502765       1.15184954      -1.28848944
