16
Properties=species:S:1:pos:R:3 atomization_energy=-1609.19 smiles=C.C.C.C.C.C.H.H.H.H.H.H.H.H.H.H pbc="F F F"
C        0.69792971      -0.22729992       0.46252982
C        2.10914917      -0.50526981       0.02059999
C        2.49549910      -1.73741930      -0.35093985
C        3.07508886       0.65718976       0.05648998
C        2.69531896       1.74404930      -0.90892961
C        2.43351898       3.00983877      -0.55365975
H        0.69312974       0.22463990       1.45977947
H        0.09685997      -1.14182960       0.51178980
H        0.20183991       0.45594980      -0.23363991
H        1.80169930      -2.57249900      -0.35990985
H        3.51695874      -1.94593929      -0.65555976
H        4.08876837       0.32294988      -0.19684992
H        3.12821872       1.04248962       1.08238956
H        2.64057898       1.46779944      -1.95987920
H        2.47927900       3.33262874       0.48104980
H        2.16514904       3.75150847      -1.29996950
