8
Properties=species:S:1:pos:R:3 atomization_energy=-861.62 smiles=O.C.C.C.N.H.H.H pbc="F F F"
O       -0.37707986      -1.07100955      -0.00218000
C       -1.15939955       0.03792998      -0.00201000
C       -0.36942987       1.15825952       0.00052000
C        0.93955966       0.64603974       0.00185000
N        0.95591962      -0.68892975       0.00027000
H       -2.22452915      -0.14175994      -0.00381000
H       -0.69114976       2.18795903       0.00127000
H        1.87909926       1.17963954       0.00389000
