14
Properties=species:S:1:pos:R:3 atomization_energy=-1342.35 smiles=C.O.C.O.C.C.H.H.H.H.H.H.H.H pbc="F F F"
C        3.37606858      -1.95515922      -0.44005981
O        2.51499901      -0.82674967      -0.49204980
C        3.13168878       0.33484985       0.06797997
O        4.26920818       0.74195969      -0.68948973
C        4.96479815       1.82967930      -0.24714990
C        4.73720797       2.60371893       0.82140965
H        2.82074879      -2.82674898      -0.79661968
H        3.70344845      -2.14861907       0.58610975
H        4.24308836      -1.81032928      -1.09169958
H        3.40579875       0.12454995       1.10949953
H        2.37758900       1.12993949       0.04889998
H        5.79714762       2.01488919      -0.91810961
H        3.91420838       2.44832905       1.50721938
H        5.39782786       3.43987861       1.03032959
