10
Properties=species:S:1:pos:R:3 atomization_energy=-1157.14 smiles=O.C.C.C.C.C.H.H.H.H pbc="F F F"
O        0.92915964      -0.00014000       0.00700000
C        2.14423911       0.00021000       0.00186000
C        3.00317874       1.19366954      -0.00155000
C        4.25293837       0.71839970      -0.00692000
C        4.25240847      -0.71763975      -0.00718000
C        3.00441870      -1.19249948      -0.00200000
H        2.64741892       2.20672919       0.00015000
H        5.15163783       1.31788944      -0.01060000
H        5.15126792      -1.31733948      -0.01108999
H        2.64834901      -2.20573905      -0.00068000
