16
Properties=species:S:1:pos:R:3 atomization_energy=-1544.53 smiles=C.O.C.C.C.C.H.H.H.H.H.H.H.H.H.H pbc="F F F"
C        3.28392881      -1.17468956       0.32756988
O        4.15669846      -0.05407998       0.35412986
C        3.54043867       1.10184960      -0.20594992
C        4.54310821       2.21054924      -0.16563994
C        4.93985823       2.91840881      -1.23519948
C        5.94817747       4.01912847      -1.17819949
H        3.80078851      -2.02457921       0.78068970
H        3.02463876      -1.43347949      -0.70343974
H        2.37708913      -0.96899959       0.90409961
H        2.66759886       1.38002942       0.39528985
H        3.21615868       0.89137966      -1.23153954
H        4.96364802       2.42726898       0.81328969
H        4.52663804       2.69477898      -2.21607907
H        6.30760770       4.19993845      -0.16037993
H        5.50718772       4.94756796      -1.55370940
H        6.80909740       3.76875859      -1.80554924
