14
Properties=species:S:1:pos:R:3 atomization_energy=-1387.62 smiles=C.C.O.C.C.O.H.H.H.H.H.H.H.H pbc="F F F"
C        2.61950907      -0.16858994       0.49866980
C        3.93788841      -0.89459966       0.69044973
O        4.64888799      -0.96844963      -0.55386976
C        5.43120775       0.10489996      -0.85164966
C        6.11887754      -0.11489995      -2.16489923
O        5.56832758       1.10344951      -0.16096993
H        2.04418913      -0.15645994       1.42898938
H        2.02208921      -0.65492975      -0.27981988
H        2.78258899       0.86464964       0.17551994
H        3.74704851      -1.92381930       1.01134961
H        4.54657827      -0.42231982       1.46957938
H        5.37706806      -0.29231989      -2.94805875
H        6.80564753      -0.96136960      -2.08571920
H        6.69144745       0.77931966      -2.42807897
