16
Properties=species:S:1:pos:R:3 atomization_energy=-1549.15 smiles=O.C.C.C.C.C.H.H.H.H.H.H.H.H.H.H pbc="F F F"
O        2.24400912      -0.36268985      -1.38718945
C        2.38454905       0.04282998      -0.03216999
C        3.15206882       1.34869947       0.00410000
C        2.41551893       2.61509907      -0.51096979
C        3.12612866       3.39572871       0.61335975
C        3.22447881       2.06082924       1.38042949
H        1.75614935      -1.20384946      -1.38363940
H        2.92764893      -0.73796970       0.50882980
H        1.38712952       0.14684995       0.40603985
H        4.14869830       1.23799947      -0.44915982
H        1.32542948       2.58365910      -0.40115983
H        2.66146898       2.92509887      -1.52989942
H        4.09793834       3.80775840       0.31858988
H        2.53657889       4.17936841       1.09508952
H        4.14738845       1.90775930       1.94600918
H        2.36827898       1.87031927       2.03806922
