16
Properties=species:S:1:pos:R:3 atomization_energy=-1550.24 smiles=C.O.C.C.C.C.H.H.H.H.H.H.H.H.H.H pbc="F F F"
C        1.20894958      -0.09667997      -0.60927974
O        2.53671893      -0.16213994      -0.09756996
C        3.14917887       1.06161955      -0.08023997
C        4.48119823       1.21032958      -0.01821999
C        5.43842796       0.05318998       0.02220999
C        5.11399809       2.57175891       0.01630999
H        0.80685966      -1.11341962      -0.64234978
H        1.20243956       0.30945987      -1.62664941
H        0.56929975       0.50409982       0.04618998
H        2.47071891       1.90596926      -0.09663996
H        4.93294789      -0.91683963      -0.00622000
H        6.03472759       0.08852996       0.93987962
H        6.11878771       0.09624996      -0.83466966
H        4.36938823       3.37443877      -0.01510000
H        5.78094796       2.70267896      -0.84211968
H        5.69881766       2.69589882       0.93359966
