16
Properties=species:S:1:pos:R:3 atomization_energy=-1539.6 smiles=C.O.C.C.C.C.H.H.H.H.H.H.H.H.H.H pbc="F F F"
C        2.43807911      -0.92180961      -0.81048970
O        2.04903919       0.33949988      -0.28345988
C        3.17294873       1.19634955      -0.00458000
C        3.53060860       2.18302923      -1.08303957
C        2.82819888       2.65259903       0.16117993
C        3.54835859       3.48458868       1.16490958
H        1.53638938      -1.50496935      -1.01442963
H        3.05096877      -1.46271938      -0.08335997
H        2.99162878      -0.78977968      -1.74491934
H        3.97461850       0.80221967       0.61322974
H        2.96047874       2.15924903      -2.00448922
H        4.57748834       2.42760913      -1.21516955
H        1.78462934       2.93451890       0.07837997
H        4.60422839       3.20663873       1.25070952
H        3.08540871       3.37047868       2.15016914
H        3.49677855       4.54134845       0.88446963
