14
Properties=species:S:1:pos:R:3 atomization_energy=-1349.47 smiles=C.O.C.C.C.O.H.H.H.H.H.H.H.H pbc="F F F"
C        3.18998865      -0.86600964      -1.11685952
O        2.54096894       0.02006999      -0.21165992
C        3.17318869       1.19746952       0.07331997
C        4.35745851       1.64915938      -0.36465986
C        4.92945815       2.97040873       0.02655999
O        6.16393734       2.74512890       0.68760974
H        2.55961900      -1.75345936      -1.22927954
H        4.15983848      -1.18764955      -0.72504971
H        3.30038863      -0.40291984      -2.10324916
H        2.54967891       1.76770927       0.75516973
H        4.96730784       1.06473962      -1.04653960
H        4.27169818       3.53629867       0.69388970
H        5.11977799       3.57701863      -0.86376963
H        5.97487765       2.16389924       1.44431938
