14
Properties=species:S:1:pos:R:3 atomization_energy=-1446.66 smiles=O.C.C.C.C.C.H.H.H.H.H.H.H.H pbc="F F F"
O        1.27876952      -0.04659998       0.72840969
C        2.39180912      -0.01119999       0.22070991
C        3.18746862       1.25357954       0.02745999
C        4.29792852       0.78197968      -0.90267962
C        4.52445840      -0.67338974      -0.51652981
C        3.12498888      -1.22779949      -0.28238990
H        3.58492871       1.57505940       0.99438960
H        2.58197908       2.04031925      -0.42709983
H        3.96561835       0.84353967      -1.94630921
H        5.20443815       1.38570940      -0.80087967
H        5.06367819      -1.22977953      -1.28878946
H        5.10982806      -0.72664974       0.40969985
H        2.66447904      -1.56005944      -1.21700955
H        3.12361872      -2.02872918       0.46010983
