14
Properties=species:S:1:pos:R:3 atomization_energy=-1418.48 smiles=O.C.C.C.C.C.H.H.H.H.H.H.H.H pbc="F F F"
O        2.49770902       1.67186931       1.48587935
C        2.19268923       1.52557939       0.30643988
C        3.17390884       1.37690947      -0.83270967
C        4.61020814       1.33746946      -0.40536985
C        5.34412772       0.02606999      -0.28818989
C        5.67888753       0.97564959      -1.40476949
H        1.13068955       1.51527935       0.00553000
H        3.01906880       2.22891920      -1.50312935
H        2.90129874       0.46759982      -1.37993946
H        4.84943785       2.12047909       0.30800989
H        4.82558800      -0.89190968      -0.54018981
H        6.05779774      -0.08083997       0.52170979
H        6.62229757       1.50830946      -1.35093941
H        5.38359788       0.70077973      -2.41086896
