14
Properties=species:S:1:pos:R:3 atomization_energy=-1411.31 smiles=O.C.C.C.C.C.H.H.H.H.H.H.H.H pbc="F F F"
O        0.82381967      -0.02914999      -0.00625000
C        2.24782916       0.02931999      -0.00021000
C        2.75619893       1.45591943       0.01502000
C        1.93376923       2.52137895       0.00657000
C        4.19659835       1.68854930       0.03965999
C        5.15813789       0.75607970       0.06373997
H        0.58681974      -0.97069961       0.00730000
H        2.60419886      -0.48941982      -0.89662966
H        2.59588909      -0.50651980       0.88886966
H        0.85478967       2.39687896      -0.01195999
H        2.29975919       3.54290849       0.01806999
H        4.51583826       2.73097892       0.03902998
H        4.95608818      -0.30876987       0.06836998
H        6.20232753       1.05483959       0.08130997
