16
Properties=species:S:1:pos:R:3 atomization_energy=-1486.3 smiles=C.C.O.C.O.C.H.H.H.H.H.H.H.H.H.H pbc="F F F"
C        0.68525971       0.01769999      -0.55295979
C        2.19039907      -0.15078994      -0.48465980
O        2.75863897       1.08121963      -0.04724998
C        4.17187846       0.99144963       0.09121997
O        4.56605824       0.13942994       1.16097952
C        4.20105830       0.67967973       2.42405908
H        0.20339992      -0.90860966      -0.87761965
H        0.41782984       0.81885966      -1.24944951
H        0.28535987       0.29986987       0.42652984
H        2.58185897      -0.40756983      -1.47523943
H        2.43688912      -0.95378963       0.21844992
H        4.57016821       1.99936917       0.25292989
H        4.61476827       0.61306976      -0.83677965
H        4.52999809      -0.01573999       3.20089870
H        3.11574876       0.79380966       2.50197897
H        4.69491826       1.64218936       2.58777892
