14
Properties=species:S:1:pos:R:3 atomization_energy=-1416.89 smiles=O.C.C.C.C.C.H.H.H.H.H.H.H.H pbc="F F F"
O        1.01122962      -0.05683998       0.65583972
C        2.04864921       0.04289998       0.00151000
C        3.04961880       1.22020949       0.02964999
C        2.48408894       2.65343904      -0.15283994
C        3.54823848       3.13201883       0.85282969
C        3.56464859       1.69727933       1.41327949
H        2.32799909      -0.77178972      -0.68805971
H        3.88328847       1.02846959      -0.66260977
H        1.45418945       2.78244895       0.19984992
H        2.56881900       3.07136874      -1.15948950
H        4.49260814       3.43315877       0.38511985
H        3.22939876       3.91165857       1.54881935
H        4.54755832       1.32045943       1.70839931
H        2.86066886       1.53788937       2.23834908
