14
Properties=species:S:1:pos:R:3 atomization_energy=-1347.5 smiles=O.C.C.C.C.O.H.H.H.H.H.H.H.H pbc="F F F"
O        1.95908928      -0.34575987      -1.26454952
C        2.37894906       0.11458996       0.01685000
C        3.19552884       1.38592943      -0.15290993
C        2.44661901       2.64492891      -0.60861978
C        3.04173874       3.28443877       0.64079977
O        3.49045866       1.99893920       1.13656950
H        1.46905946      -1.17321948      -1.11740961
H        2.98276893      -0.66847975       0.48544982
H        1.48989937       0.28934989       0.63117977
H        4.12874849       1.20898958      -0.70279970
H        1.35525945       2.57264888      -0.60050978
H        2.78467880       3.07094886      -1.55619941
H        3.88632855       3.95846854       0.46916982
H        2.32038903       3.75161848       1.31628953
