14
Properties=species:S:1:pos:R:3 atomization_energy=-1346.23 smiles=O.C.C.C.O.C.H.H.H.H.H.H.H.H pbc="F F F"
O        2.13859925      -0.39635985      -1.32946943
C        2.32350911       0.04701998       0.00883000
C        3.11428877       1.33613942      -0.01675999
C        2.34969908       2.58142900      -0.47283982
O        2.45580891       3.18515878       0.83755967
C        3.22145865       2.06213922       1.32606951
H        1.63553942      -1.22851951      -1.28945953
H        2.86924888      -0.72879973       0.55507981
H        1.34005952       0.17720993       0.47291981
H        4.08614841       1.22191954      -0.51243980
H        1.30404945       2.43336909      -0.75832968
H        2.85527881       3.18543887      -1.23189949
H        4.23340843       2.36361918       1.61211942
H        2.72784900       1.58391938       2.17729904
