16
Properties=species:S:1:pos:R:3 atomization_energy=-1605.94 smiles=C.C.C.C.C.C.H.H.H.H.H.H.H.H.H.H pbc="F F F"
C        0.89632964       0.05453998       0.00246000
C        2.42202907       0.05038998      -0.10893996
C        2.85298891      -0.69517974      -1.34862944
C        3.63542852      -1.78353927      -1.34206946
C        2.94687885       1.46562939      -0.14172994
C        3.79982839       1.97569924       0.75763968
H        0.57269979       0.57868975       0.90844961
H        0.50665981      -0.96814962       0.05349998
H        0.42665983       0.54877980      -0.85564968
H        2.81604887      -0.46269983       0.77922971
H        2.49770902      -0.31470988      -2.30445911
H        4.02096847      -2.20327907      -0.41865982
H        3.91128840      -2.27363912      -2.27032904
H        2.60208887       2.10348912      -0.95279961
H        4.17892834       1.38358943       1.58482941
H        4.14199840       3.00295871       0.67741972
