12
Properties=species:S:1:pos:R:3 atomization_energy=-1218.35 smiles=C.O.C.C.C.O.H.H.H.H.H.H pbc="F F F"
C        1.51071934      -0.07369997      -0.28895988
O        2.90102874       0.13861994      -0.07791997
C        3.35290860       1.43810939      -0.08936997
C        2.62133897       2.54782907      -0.28372987
C        4.82206798       1.61295930       0.14180995
O        5.39584807       2.69586905       0.16504994
H        1.32470945      -1.15157955      -0.24920990
H        1.20441948       0.28397987      -1.27779955
H        0.91718961       0.39933986       0.50046981
H        1.55364935       2.53106898      -0.45933981
H        3.08593885       3.53159850      -0.27216989
H        5.37012794       0.66735971       0.29492988
