16
Properties=species:S:1:pos:R:3 atomization_energy=-1614.48 smiles=C.C.C.C.C.C.H.H.H.H.H.H.H.H.H.H pbc="F F F"
C        1.06406956      -0.12396995       0.41400983
C        2.48369909      -0.01706999      -0.08939996
C        3.08251875      -1.12322950      -0.56868981
C        3.14848874       1.29589953      -0.05614998
C        4.44978803       1.46882946      -0.80388966
C        2.63546902       2.35639898       0.59555974
H        0.41099983       0.58258979      -0.11110995
H        1.01539959       0.07629997       1.49019939
H        0.64315976      -1.12369960       0.25416990
H        2.56675896      -2.07879914      -0.58744975
H        4.09810841      -1.13218953      -0.94770965
H        4.33275831       1.19142960      -1.85742930
H        5.24023790       0.85487969      -0.35791987
H        4.80143788       2.50709902      -0.78629971
H        1.70810938       2.31688920       1.15549951
H        3.14435884       3.31579875       0.59770979
