13
Properties=species:S:1:pos:R:3 atomization_energy=-1255.27 smiles=O.C.C.C.C.H.H.H.H.H.H.H.H pbc="F F F"
O        2.73513886      -0.95879960      -1.19524951
C        2.40244918      -0.28050987       0.01235000
C        3.01983891       1.11753956       0.02252999
C        4.51884807       1.07133960       0.14978994
C        5.21223771       1.62338941       1.15354950
H        2.36889896      -1.85676921      -1.12533949
H        2.75236904      -0.87694965       0.86162968
H        1.31159945      -0.20419992       0.06326998
H        2.58616904       1.69388938       0.84808964
H        2.77433902       1.63745941      -0.91095962
H        5.05303788       0.55453976      -0.64640972
H        4.72302797       2.15270911       1.96479929
H        6.29565729       1.55605936       1.17873948
