14
Properties=species:S:1:pos:R:3 atomization_energy=-1412.82 smiles=O.C.C.C.C.C.H.H.H.H.H.H.H.H pbc="F F F"
O        1.80922924      -0.60858975      -1.12640951
C        2.71145883      -0.35556985      -0.06230997
C        2.86246899       1.12205957       0.06239998
C        4.03993849       1.76457935       0.02252999
C        4.15184841       3.19801885       0.14408995
C        5.32329778       3.84337849       0.10569996
H        1.75912925      -1.57340941      -1.22700956
H        3.66193844      -0.85348966      -0.27840988
H        2.29249911      -0.76981971       0.85965966
H        1.93756921       1.67945932       0.18873993
H        4.95997812       1.19977948      -0.11180996
H        3.23555867       3.77169850       0.26885990
H        6.26722763       3.32284863      -0.02033999
H        5.35869784       4.92437822       0.19834992
