10
Properties=species:S:1:pos:R:3 atomization_energy=-1108.37 smiles=O.C.C.C.C.O.H.H.H.H pbc="F F F"
O        1.01648960      -0.13612995      -0.00306000
C        2.32149904       0.06309998       0.00190000
C        3.13089873       1.17385952       0.00321000
C        4.46120804       0.68390975       0.00949000
C        4.36405849      -0.68886975       0.01155000
O        3.06051875      -1.07254953       0.00693000
H        0.60322979       0.74136973      -0.00634000
H        2.81266890       2.20541909       0.00005000
H        5.37735773       1.25727947       0.01218999
H        5.08578796      -1.49375941       0.01591999
