14
Properties=species:S:1:pos:R:3 atomization_energy=-1353.39 smiles=O.C.C.C.O.C.H.H.H.H.H.H.H.H pbc="F F F"
O        0.90553967      -0.00319000       0.11351995
C        2.33863915       0.00550000       0.01359999
C        3.06731882       1.05461956       0.87860968
C        4.11664845      -0.01990999       1.22470956
O        5.34654809       0.01057999       0.47399982
C        3.08434866      -1.08579956       0.80908970
H        0.61928973      -0.78595969      -0.38789985
H        2.64895890       0.04524998      -1.03773961
H        2.49266895       1.40684946       1.74357933
H        3.44474860       1.92366929       0.33089986
H        4.35561851      -0.05419998       2.29335906
H        5.09602806       0.11935995      -0.45855983
H        3.47493852      -1.91113928       0.20595992
H        2.51506891      -1.50259945       1.64863932
