16
Properties=species:S:1:pos:R:3 atomization_energy=-1543.96 smiles=C.O.C.C.C.C.H.H.H.H.H.H.H.H.H.H pbc="F F F"
C        3.42023866      -0.90404965       0.66211974
O        3.06783888       0.32683988       1.28243955
C        3.12471888       1.43935943       0.38473985
C        2.28549919       2.55770910       0.99468963
C        4.55448834       1.88436920       0.24150991
C        5.20621810       1.98579917      -0.92497965
H        3.30479862      -1.70177928       1.40018942
H        4.46187823      -0.89146968       0.32971986
H        2.75634881      -1.11419957      -0.18153993
H        2.68535894       1.16279959      -0.58204980
H        2.64723901       2.82875880       1.99304916
H        1.24845949       2.22686901       1.11892953
H        2.29064902       3.45304853       0.36527987
H        5.07851779       2.12554918       1.16385950
H        4.72798829       1.74861927      -1.87014933
H        6.24275755       2.30816913      -0.95309963
