9
Properties=species:S:1:pos:R:3 atomization_energy=-966.71 smiles=O.C.C.C.C.H.H.H.H pbc="F F F"
O        1.29526946      -0.34082985       0.73060970
C        2.24475905      -0.05723998       0.00423000
C        3.00338893       1.23937947       0.09685997
C        4.45009840       1.01487960      -0.01346999
C        5.63568792       0.83995966      -0.10326996
H        2.52782905      -0.72306972      -0.82953970
H        2.76116884       1.72496927       1.04745960
H        2.65808900       1.88420922      -0.71762971
H        6.68816714       0.68945971      -0.17837994
