14
Properties=species:S:1:pos:R:3 atomization_energy=-1452.68 smiles=C.C.C.C.C.C.H.H.H.H.H.H.H.H pbc="F F F"
C        0.80360970       0.02464999       0.11114996
C        2.29323920       0.01674999       0.22689991
C        3.08547885       1.00281961      -0.22453992
C        4.58225841       1.00627958      -0.11001996
C        5.18497786       1.05086960      -1.44907949
C        5.68332755       1.08703952      -2.54157908
H        0.47048983      -0.84258964      -0.46704983
H        0.43110984       0.92772962      -0.38254986
H        0.35251986      -0.03108999       1.10652959
H        2.73302886      -0.85605966       0.70481974
H        2.63955905       1.87414928      -0.70086975
H        4.94008785       0.12209995       0.42971984
H        4.89134805       1.88347923       0.46925981
H        6.12218762       1.11726956      -3.51203853
