13
Properties=species:S:1:pos:R:3 atomization_energy=-1306.46 smiles=C.C.C.C.C.H.H.H.H.H.H.H.H pbc="F F F"
C        1.91048927      -0.66082976      -1.19041951
C        2.06824917       0.29639987      -0.26705989
C        3.23694876       1.16653951      -0.13080995
C        3.51014857       2.19768917      -1.19443953
C        3.01875894       2.62927908       0.15597994
H        1.01206957      -1.26867955      -1.21611958
H        2.67431895      -0.85168965      -1.93733921
H        1.27041950       0.43647983       0.46188981
H        4.09571833       0.69684973       0.33892986
H        2.82706893       2.28209903      -2.03245926
H        4.54475845       2.39843913      -1.44808947
H        3.72074853       3.12456875       0.81731968
H        2.00543925       3.00892887       0.22559991
