8
Properties=species:S:1:pos:R:3 atomization_energy=-955.38 smiles=O.C.C.C.C.C.H.H pbc="F F F"
O        0.92707961      -0.08411997       0.00000000
C        2.14944924      -0.07098997       0.00000000
C        2.87633888       1.17069957       0.00000000
C        3.48553871       2.20459901       0.00000000
C        4.26366850       3.52417869       0.00000000
C        4.87183831       4.55859832       0.00000000
H        2.76368888      -0.98502963       0.00000000
H        5.40915803       5.47890794       0.00000000
