12
Properties=species:S:1:pos:R:3 atomization_energy=-1254.73 smiles=O.C.C.C.C.C.H.H.H.H.H.H pbc="F F F"
O        1.00006958      -0.00516000      -0.00868000
C        2.41999907       0.00000000       0.00000000
C        2.90201889       1.36116943       0.00000000
C        3.29929881       2.48306901       0.00000000
C        3.76862864       3.80841850       0.00000000
C        2.92790883       4.84812825      -0.00005000
H        0.72483970      -0.93604961      -0.00823999
H        2.77141879      -0.54051979      -0.88422966
H        2.76053902      -0.53665976       0.89081967
H        4.84126787       3.97614839       0.00002000
H        1.85064929       4.70894839      -0.00011000
H        3.30399873       5.86545773      -0.00007000
