16
Properties=species:S:1:pos:R:3 atomization_energy=-1540.48 smiles=C.O.C.C.C.C.H.H.H.H.H.H.H.H.H.H pbc="F F F"
C        1.25302946      -0.22016992      -0.28408989
O        2.66472884      -0.06417997      -0.25488990
C        3.03745870       1.27209952       0.07103997
C        4.52993803       1.34785946       0.09606996
C        5.30133790       1.79886928      -1.11788954
C        5.22590801       2.68496884       0.09522997
H        1.02641959      -1.26961948      -0.49008982
H        0.81820965       0.39379983      -1.07845963
H        0.81464970       0.04767998       0.68215970
H        2.64558902       1.52972935       1.06155962
H        2.61528908       1.96376927      -0.66771973
H        4.95975808       0.56220975       0.70764970
H        4.74991790       2.09619915      -2.00273918
H        6.24120774       1.30159944      -1.33026944
H        6.11755734       2.78948899       0.70306970
H        4.62620796       3.58513865       0.02942999
