18
Properties=species:S:1:pos:R:3 atomization_energy=-1750.54 smiles=C.C.C.C.C.C.H.H.H.H.H.H.H.H.H.H.H.H pbc="F F F"
C        0.97145963      -0.01161000       0.01192000
C        2.48639903       0.01396000       0.02592999
C        3.15018870       1.05719958       0.96228960
C        4.24186809       0.00565000       1.24742947
C        3.19551875      -1.07923958       0.88386965
C        3.71349855      -2.29429899       0.14154995
H        0.60717979      -0.87295966      -0.55595975
H        0.57615976       0.89377964      -0.45827983
H        0.55839980      -0.07479997       1.02447960
H        2.88251898       0.07521997      -0.99728958
H        2.55550903       1.32017947       1.84514923
H        3.49359867       1.97586918       0.47990983
H        5.09456807       0.06418997       0.56079978
H        4.61532794      -0.02092999       2.27438905
H        2.60320897      -1.38370942       1.75909935
H        4.31497855      -2.01084923      -0.72849970
H        2.88244883      -2.91369880      -0.20917992
H        4.33760812      -2.90857874       0.79833970
