10
Properties=species:S:1:pos:R:3 atomization_energy=-1086.92 smiles=O.C.C.C.C.C.H.H.H.H pbc="F F F"
O        0.99528961       0.00242000       0.00353000
C        2.41999907       0.00000000       0.00000000
C        2.88064896      -0.78045969      -1.15704959
C        3.25631872      -1.41928939      -2.10318923
C        2.90201889       1.36116943       0.00000000
C        3.29929881       2.48306901       0.00000000
H        0.72572974       0.63942974       0.68445970
H        2.73916884      -0.50631979       0.91790964
H        3.58187853      -1.98236924      -2.94680895
H        3.65652846       3.48718870      -0.01070000
