14
Properties=species:S:1:pos:R:3 atomization_energy=-1383.97 smiles=C.O.C.C.C.C.H.H.H.H.H.H.H.H pbc="F F F"
C        1.16055952      -0.28140988      -0.17972992
O        2.44139903       0.02781999       0.35005985
C        2.89400889       1.33854944       0.00000000
C        2.35925915       2.35255900       1.00742958
C        4.33800832       1.33854944       0.00000000
C        5.52816805       1.33854944       0.00000000
H        0.90059965      -1.29851948       0.12607996
H        1.17775955      -0.24371990      -1.27322946
H        0.39950983       0.40005985       0.20898993
H        2.53909892       1.60009937      -1.00482962
H        2.64520900       2.08018923       2.03042926
H        1.26540946       2.38982908       0.98688963
H        2.73802881       3.35975864       0.80188968
H        6.59349750       1.32842944       0.00437000
