18
Properties=species:S:1:pos:R:3 atomization_energy=-1688.27 smiles=C.O.C.C.C.C.H.H.H.H.H.H.H.H.H.H.H.H pbc="F F F"
C        1.66628939       2.70389898       0.68196976
O        3.00031882       2.27770922       0.92365964
C        3.64207846       1.84717923      -0.27623990
C        5.07572801       1.40708942       0.04448998
C        5.74383760       0.82054970      -1.19720949
C        5.90507777       2.56915889       0.59546978
H        1.22880957       3.02151893       1.63242931
H        1.06801955       1.88087921       0.27968989
H        1.65419932       3.55220866      -0.00902000
H        3.64677863       2.66736899      -1.00460959
H        3.07934872       1.00639962      -0.69924972
H        5.03716827       0.63362978       0.82212968
H        5.80705768       1.56086943      -2.00197916
H        5.18037786      -0.04028999      -1.57200935
H        6.75963744       0.48082980      -0.96902962
H        5.96631756       3.39006867      -0.12714995
H        6.92539738       2.24275907       0.82342969
H        5.47025803       2.96303890       1.51991935
