14
Properties=species:S:1:pos:R:3 atomization_energy=-1429.92 smiles=O.C.C.C.C.C.H.H.H.H.H.H.H.H pbc="F F F"
O        1.01984957       0.05501998      -0.05525997
C        2.43362899      -0.00152000      -0.03918999
C        2.94094881      -1.27912946       0.63278977
C        3.26120865      -0.89560968       2.08008918
C        3.40151870       0.58863975       2.01518921
C        2.93410886       1.07413959       0.86013966
H        0.70783971      -0.71771973      -0.55339979
H        2.81432898       0.10061996      -1.06007957
H        3.86594851      -1.60959938       0.14127994
H        2.22403912      -2.10524913       0.58805976
H        4.18262828      -1.37755947       2.42121909
H        2.44602906      -1.16988959       2.75758902
H        3.77768859       1.19258956       2.82893896
H        2.88081878       2.12363929       0.60941979
