16
Properties=species:S:1:pos:R:3 atomization_energy=-1544.61 smiles=C.O.C.C.C.C.H.H.H.H.H.H.H.H.H.H pbc="F F F"
C        1.53457941      -0.18787992       0.71303975
O        2.95170872      -0.10614996       0.69672975
C        3.40389869       1.02033960      -0.04935998
C        4.90913791       1.03985957      -0.02381999
C        5.59608755      -0.15111994      -0.62789977
C        5.60437764       2.06608921       0.49533982
H        1.24647957      -1.07005952       1.29177946
H        1.14417956      -0.29517988      -0.30378990
H        1.10417963       0.69793974       1.19047956
H        2.98811886       1.93674926       0.38810985
H        3.05518876       0.94446965      -1.08653953
H        5.28819800      -0.27881989      -1.67150936
H        5.34520771      -1.06380953      -0.07687997
H        6.68678739      -0.04699998      -0.61535973
H        5.10770797       2.92597875       0.93396964
H        6.69027713       2.06732917       0.50680979
