12
Properties=species:S:1:pos:R:3 atomization_energy=-1265.45 smiles=O.C.C.C.C.C.H.H.H.H.H.H pbc="F F F"
O        2.72182888      -1.16578958      -0.42497984
C        2.20218925      -0.09171997      -0.14083993
C        2.96163871       1.17990953       0.13078995
C        4.46593824       0.98156960       0.01011000
C        5.18358802       2.23719921       0.27866988
C        5.77385795       3.26068859       0.49718982
H        1.10469955      -0.00391000      -0.06768997
H        2.69372903       1.51859940       1.13801952
H        2.61078900       1.93533923      -0.58141979
H        4.71922836       0.62259974      -0.99465960
H        4.80182799       0.21001991       0.71324975
H        6.30266755       4.16571830       0.69001976
