12
Properties=species:S:1:pos:R:3 atomization_energy=-1213.03 smiles=O.C.C.C.C.O.H.H.H.H.H.H pbc="F F F"
O        1.09736959      -0.24193991      -0.51448981
C        2.07107919       0.11623996       0.15186994
C        3.00600889       1.30956945      -0.16139994
C        2.42225895       2.72463885      -0.07255997
C        3.62029848       3.02110890       0.82122968
O        3.95536840       1.61504936       0.90564962
H        2.33401896      -0.44182982       1.06595964
H        3.55687856       1.13547955      -1.09529959
H        1.45413949       2.79709879       0.43127982
H        2.39334910       3.27786882      -1.01435961
H        4.42725839       3.59297858       0.35379987
H        3.38024869       3.44258864       1.80073930
