14
Properties=species:S:1:pos:R:3 atomization_energy=-1355.73 smiles=C.O.C.C.C.O.H.H.H.H.H.H.H.H pbc="F F F"
C        2.52601908      -0.91839967       0.62062973
O        3.87744851      -0.47340980       0.63649973
C        4.02158845       0.79765967       0.00042000
C        5.48775771       1.18679957       0.02140999
C        5.89206757       1.54167938       1.42458948
O        6.42495737       2.60896894       1.71805931
H        2.47852907      -1.89026921       1.11884954
H        2.17374925      -1.03516961      -0.40865984
H        1.88569924      -0.21549991       1.16197951
H        3.40891857       1.54123944       0.52344981
H        3.68046864       0.71820970      -1.03792961
H        5.66107799       2.05467917      -0.62264977
H        6.12442782       0.35998987      -0.30910989
H        5.72779791       0.76292967       2.18907913
