12
Properties=species:S:1:pos:R:3 atomization_energy=-1119.24 smiles=C.C.C.N.O.H.H.H.H.H.H.H pbc="F F F"
C        1.00261958       0.00806000      -0.00478000
C        2.50846893       0.03130999      -0.00203000
C        3.22691885      -1.29535954      -0.00615000
N        3.10927874       1.18392955       0.00076000
O        4.50009834       1.03159957       0.00050000
H        0.59878977       1.02420961       0.00372000
H        0.64770973      -0.52528980       0.88127966
H        0.65111974      -0.50917981      -0.90167963
H        2.50717901      -2.11839912       0.00329000
H        3.86084839      -1.37423943       0.88131965
H        3.84202852      -1.37758950      -0.90644964
H        4.81043804       1.95627919       0.00288000
