12
Properties=species:S:1:pos:R:3 atomization_energy=-1249.91 smiles=C.O.C.C.C.C.H.H.H.H.H.H pbc="F F F"
C        1.02839957       0.07612998      -0.60181976
O        2.36357906      -0.06407997      -0.12417996
C        3.04719869       1.12310952      -0.13332994
C        4.37553805       1.16826950       0.00000000
C        5.07853797       2.38589902       0.00000000
C        5.67361784       3.41660862       0.00000000
H        0.56237976      -0.91345965      -0.60311978
H        1.01977962       0.46228982      -1.62692937
H        0.44662983       0.72899970       0.05782998
H        2.43708896       2.01163916      -0.23843990
H        4.93656783       0.24574990       0.11157996
H        6.20751748       4.33826822       0.00066000
