14
Properties=species:S:1:pos:R:3 atomization_energy=-1409.41 smiles=C.O.C.C.C.C.H.H.H.H.H.H.H.H pbc="F F F"
C        3.51854868      -1.11995954      -0.28650987
O        2.56446906      -0.08897996      -0.05821998
C        3.03968880       1.19032955       0.04131999
C        4.30207836       1.63488942      -0.04767998
C        4.63939832       3.03413878       0.08061997
C        5.89221746       3.49421865      -0.00991999
H        2.97995872      -2.07034919      -0.34502988
H        4.22992828      -1.18503956       0.54315981
H        4.03960844      -0.96808962      -1.23740952
H        2.19793924       1.85373922       0.21475992
H        5.12461820       0.94828963      -0.22217991
H        3.82897845       3.73854848       0.25882989
H        6.73949737       2.83915888      -0.18702993
H        6.09734763       4.55549818       0.09300996
