11
Properties=species:S:1:pos:R:3 atomization_energy=-1008.49 smiles=C.C.C.H.H.H.H.H.H.H.H pbc="F F F"
C        0.98997961      -0.01335999       0.00412000
C        2.50891909       0.01650999       0.00826000
C        3.04163882       1.43935943       0.00647000
H        0.63089974      -1.04740957       0.00051000
H        0.58973978       0.48837980      -0.88272968
H        0.58539975       0.48353980       0.89176964
H        2.88676875      -0.51544980      -0.87181963
H        2.88158889      -0.51145982       0.89293963
H        2.71139903       1.98077917      -0.88593965
H        4.13605827       1.43473938       0.01520999
H        2.69702902       1.98881920       0.88849968
