8
Properties=species:S:1:pos:R:3 atomization_energy=-884.77 smiles=O.C.C.N.C.H.H.H pbc="F F F"
O       -0.36411987      -1.09873962      -0.00406000
C       -1.14875949       0.01543999      -0.00210000
C       -0.32433988       1.11256952       0.00078000
N        0.98706960       0.71084970       0.00069000
C        0.90370964      -0.60034975      -0.00221000
H       -2.21609901      -0.14362995      -0.00309000
H       -0.60085977       2.15817915       0.00289000
H        1.70805930      -1.32243948      -0.00330000
