12
Properties=species:S:1:pos:R:3 atomization_energy=-1251.81 smiles=O.C.C.C.C.C.H.H.H.H.H.H pbc="F F F"
O        2.63725906      -0.55656977       1.35104942
C        2.42670906      -0.02788999       0.04948998
C        2.91469879       1.39698949       0.00000000
C        2.06393923       2.43347911      -0.08388997
C        4.29715841       1.65321939       0.00000000
C        5.46738801       1.87010921       0.00000000
H        2.39284898      -1.49513941       1.31425953
H        1.35817942      -0.09749996      -0.17934993
H        2.96898887      -0.64270973      -0.67690976
H        0.98912963       2.28476920      -0.09179996
H        2.41966902       3.45863868      -0.12917995
H        6.51438761       2.06388914       0.00778000
