16
Properties=species:S:1:pos:R:3 atomization_energy=-1547.56 smiles=C.O.C.C.C.C.H.H.H.H.H.H.H.H.H.H pbc="F F F"
C        1.24065955       0.11787996      -0.82043969
O        2.22956921       0.24026990       0.19906992
C        2.96116887       1.41469948       0.09696997
C        2.18498909       2.69902899       0.15984994
C        4.29998856       1.31598951       0.06136997
C        5.29728798       2.42422915      -0.02243999
H        0.85185966      -0.90454965      -0.79142967
H        1.67047935       0.29187989      -1.81313924
H        0.40515985       0.80136969      -0.63897977
H        1.35257944       2.60390894       0.86585963
H        1.77831930       2.94994896      -0.82454966
H        2.79061893       3.54135867       0.50555980
H        4.72931808       0.31539988       0.08236997
H        4.84467787       3.40224870      -0.20074992
H        5.98998775       2.23027902      -0.84779965
H        5.87743791       2.47419906       0.90387965
