12
Properties=species:S:1:pos:R:3 atomization_energy=-1213.94 smiles=O.C.C.C.C.O.H.H.H.H.H.H pbc="F F F"
O        2.20710921      -1.10808963       0.07562997
C        1.95189923       0.07737997      -0.12091996
C        2.94640875       1.20136955       0.01044000
C        4.30844821       0.74324973       0.41411984
C        5.43259809       0.62146974      -0.58100975
O        5.31877802       1.75376936       0.29321990
H        0.93314963       0.38792985      -0.41240983
H        2.55751910       1.89526928       0.76308972
H        2.97323888       1.72813931      -0.95005960
H        4.31953817       0.12495995       1.30249950
H        5.22870788       0.77797972      -1.63253932
H        6.22213755      -0.09090996      -0.37591986
