14
Properties=species:S:1:pos:R:3 atomization_energy=-1430.36 smiles=O.C.C.C.C.C.H.H.H.H.H.H.H.H pbc="F F F"
O        1.02379957      -0.02703999       0.04264998
C        2.45407893      -0.00729000      -0.00539000
C        2.94934892      -1.22940949      -0.79052967
C        3.24298882      -0.66635973      -2.14643919
C        3.24362873       0.67046976      -2.14215914
C        2.95166885       1.22121957      -0.78250970
H        0.73240970       0.81197966       0.43696983
H        2.81413898      -0.01502000       1.02838960
H        2.19516914      -2.01997921      -0.84624965
H        3.87214854      -1.63253932      -0.36059985
H        3.44725854      -1.28001944      -3.01262880
H        3.45035868       1.28760944      -3.00532886
H        3.87512858       1.61883938      -0.34875987
H        2.20017918       2.01460922      -0.83269964
