12
Properties=species:S:1:pos:R:3 atomization_energy=-1309.11 smiles=O.C.C.C.C.C.H.H.H.H.H.H pbc="F F F"
O        1.14516958       0.02593999      -0.46882980
C        2.32127901       0.00345000      -0.14342994
C        3.14943877      -1.23410954       0.04091998
C        4.48875807      -0.67329972       0.50464980
C        4.32136808       0.81237966       0.45998982
C        3.10261871       1.22285947       0.10284996
H        3.24441878      -1.76247932      -0.91158963
H        2.70159898      -1.88492925       0.79607969
H        5.30172800      -0.99784963      -0.15322994
H        4.72217811      -1.00282958       1.52307942
H        5.12817809       1.49036946       0.70770969
H        2.71688900       2.22143910      -0.00103000
