16
Properties=species:S:1:pos:R:3 atomization_energy=-1541.69 smiles=C.O.C.C.C.C.H.H.H.H.H.H.H.H.H.H pbc="F F F"
C        2.01033915      -0.48990981      -1.30606948
O        2.25388915       0.08659997      -0.03128999
C        3.06804882       1.27713946      -0.02796999
C        2.37959907       2.59014906      -0.47902982
C        3.16449866       3.30890859       0.63317974
C        3.25221884       1.95093924       1.35391944
H        1.39825947      -1.38530945      -1.17195959
H        2.95545886      -0.77354967      -1.77746932
H        1.47084937       0.21586991      -1.94361923
H        4.02905847       1.10117953      -0.53018980
H        1.29301955       2.59760898      -0.33524986
H        2.60631895       2.91711889      -1.49707945
H        4.13564849       3.69756862       0.30640988
H        2.62447898       4.09593836       1.16481950
H        4.20232829       1.74908937       1.85555928
H        2.43157905       1.76429926       2.05595925
