14
Properties=species:S:1:pos:R:3 atomization_energy=-1345.95 smiles=O.C.C.C.C.O.H.H.H.H.H.H.H.H pbc="F F F"
O        2.74085895       0.20227992      -1.73726929
C        2.23716917      -0.05709998      -0.43029983
C        2.96055873       0.81998965       0.58452977
C        4.37936844       0.37971984       0.77413968
C        5.04571826       0.45199982       2.12334911
O        4.53662834      -0.78354968       1.59903932
H        2.31943901      -0.44133983      -2.33274898
H        2.36867918      -1.12052956      -0.20583992
H        1.16786955       0.17577993      -0.43167983
H        2.42209897       0.78419968       1.53805944
H        2.96612894       1.86118929       0.24319991
H        4.98621805       0.46352980      -0.11708995
H        4.51261801       0.89802966       2.95294892
H        6.12156739       0.57167980       2.15881906
