10
Properties=species:S:1:pos:R:3 atomization_energy=-1076.78 smiles=O.C.C.O.C.C.H.H.H.H pbc="F F F"
O        1.40793940      -0.25002990      -0.07418997
C        0.47796981      -1.27277955      -0.07721997
C       -0.83866968      -1.03898959      -0.08309997
O       -1.36029951       0.24128991      -0.08655997
C       -0.42986982       1.26430955      -0.08350997
C        0.88646967       1.03065957      -0.07762997
H        0.94339964      -2.24613905      -0.07428997
H       -1.61053932      -1.79310931      -0.08567997
H       -0.89574966       2.23780909      -0.08642997
H        1.65904937       1.78404936      -0.07503997
