12
Properties=species:S:1:pos:R:3 atomization_energy=-1113.96 smiles=C.C.C.N.O.H.H.H.H.H.H.H pbc="F F F"
C        0.98759962      -0.08732996      -0.05191998
C        2.49472899       0.03197999       0.06643997
C        2.89533892       1.47966935       0.06484997
N        3.41432856       2.02520915       1.11595958
O        3.68259857       3.37052864       0.83965970
H        0.68685975      -1.13933959      -0.06350998
H        0.62635973       0.38329985      -0.97254964
H        0.48832981       0.40424985       0.78986969
H        2.97801879      -0.45437983      -0.78671972
H        2.84311897      -0.45015981       0.98534958
H        2.71824881       2.05145917      -0.86370964
H        4.06449839       3.68394854       1.68099929
