14
Properties=species:S:1:pos:R:3 atomization_energy=-1449.49 smiles=C.C.C.C.C.C.H.H.H.H.H.H.H.H pbc="F F F"
C        1.01033959      -0.03407999       0.24273991
C        2.51999896       0.00000000       0.00000000
C        2.85347894      -0.76386967      -1.26428949
C        3.35607864      -0.29348989      -2.41517904
C        3.00201878       1.36116943       0.00000000
C        3.39929870       2.48306901       0.00000000
H        0.75411972       0.45783983       1.18843959
H        0.64080974      -1.06464954       0.29398989
H        0.46116981       0.48054980      -0.55520976
H        3.00377879      -0.53402977       0.82842969
H        2.65960905      -1.83489928      -1.20803955
H        3.58174857       0.75785971      -2.56538906
H        3.55264873      -0.96301959      -3.24734859
H        3.75611856       3.48706859      -0.00153000
