16
Properties=species:S:1:pos:R:3 atomization_energy=-1489.92 smiles=C.O.C.C.C.O.H.H.H.H.H.H.H.H.H.H pbc="F F F"
C        2.12287927      -0.76872970      -0.21373992
O        3.41477871      -0.18507993      -0.08530996
C        3.33747880       1.23527947       0.05509998
C        4.74899790       1.81430930       0.12563995
C        5.54278762       1.27170954       1.31021946
O        5.84487759      -0.10717995       1.14593957
H        2.24481910      -1.84813923      -0.33402987
H        1.60964935      -0.37388985      -1.09567959
H        1.52913940      -0.58039974       0.68535970
H        2.78001900       1.48229940       0.96609961
H        2.81241883       1.66108934      -0.80788968
H        4.68609827       2.90538877       0.19602993
H        5.28004770       1.55769939      -0.79889969
H        4.99098812       1.39836948       2.24837899
H        6.49245750       1.80784924       1.40188951
H        5.04820826      -0.52444979       0.75432972
