13
Properties=species:S:1:pos:R:3 atomization_energy=-1315.79 smiles=C.C.C.N.C.O.H.H.H.H.H.H.H pbc="F F F"
C        0.72580973       0.10504996      -0.05733997
C        2.17956927      -0.09188997       0.22445991
C        3.10190890       0.86437965       0.06472997
N        4.42248832       0.64074974       0.33455987
C        5.42239786       1.56456936       0.19638992
O        6.59643716       1.32593944       0.44884984
H        0.39653983      -0.60026976      -0.82651967
H        0.50442980       1.11877952      -0.40672985
H        0.14234995      -0.07789997       0.85012968
H        2.46749891      -1.08081956       0.57742980
H        2.83210900       1.85874925      -0.28755989
H        4.72572791      -0.26837991       0.66529975
H        5.07986776       2.54843896      -0.16379994
