12
Properties=species:S:1:pos:R:3 atomization_energy=-1245.3 smiles=O.C.O.C.C.C.H.H.H.H.H.H pbc="F F F"
O        2.52322905      -0.90874963      -1.31223949
C        2.19594910      -0.17590993      -0.22121992
O        1.19525948      -0.40556985       0.44190981
C        3.15188866       0.97096960       0.05809998
C        4.57377806       0.49618980       0.16697994
C        5.56966796       0.89383963      -0.63566975
H        3.35574859      -0.61413978      -1.73059929
H        2.86165876       1.43722938       1.00612963
H        3.02385880       1.71994927      -0.73110969
H        4.79042817      -0.20838991       0.97000961
H        5.41724777       1.61098935      -1.43709943
H        6.58022739       0.52014979      -0.48946981
