11
Properties=species:S:1:pos:R:3 atomization_energy=-1163.99 smiles=C.C.C.C.N.O.H.H.H.H.H pbc="F F F"
C        0.98175960      -0.03395999      -0.00706000
C        2.44686907       0.11663996       0.00027000
C        3.30233864       1.19090954       0.00226000
C        4.58093821       0.60673978       0.01002000
N        4.52334815      -0.72689974       0.01250999
O        3.17215868      -1.03529957       0.00623000
H        0.48644981       0.94177961       0.00127000
H        0.64892976      -0.59203978       0.87343966
H        0.65621973      -0.57344978      -0.90170966
H        3.04194868       2.23863901      -0.00134000
H        5.54845801       1.08729955       0.01389999
