15
Properties=species:S:1:pos:R:3 atomization_energy=-1432.23 smiles=C.C.O.C.C.N.H.H.H.H.H.H.H.H.H pbc="F F F"
C        0.71219973       1.19646953      -0.23427990
C       -0.74247968       1.17756954       0.26094990
O       -1.42937948       0.00198000      -0.18598993
C       -0.74362968      -1.18069958       0.24623990
C        0.71102974      -1.19577953      -0.24861991
N        1.46202938      -0.00250000       0.18736993
H        0.72933971       1.25228950      -1.32915944
H        1.22171957       2.08883915       0.14484994
H       -1.28002953       2.04571914      -0.13355995
H       -0.78818967       1.22510951       1.35484941
H       -0.78956967      -1.24111955       1.34045946
H       -1.28252951      -2.04318914      -0.15789994
H        1.21857956      -2.09238919       0.11893995
H        0.72746969      -1.23736953      -1.34422942
H        1.51133945      -0.00870000       1.20656947
