11
Properties=species:S:1:pos:R:3 atomization_energy=-1137.56 smiles=C.C.C.O.N.C.H.H.H.H.H pbc="F F F"
C        1.01711960       0.02520999      -0.11268996
C        2.34475919      -0.03848999      -0.00569000
C        3.27408864      -1.18733955      -0.01959999
O        4.58221804      -0.62048975       0.20316992
N        4.48156815       0.79957965       0.28844989
C        3.23188877       1.10157961       0.17349993
H        0.42318983      -0.87467968      -0.23848991
H        0.48705982       0.97256964      -0.07567997
H        3.28303858      -1.69680936      -0.98712959
H        3.06512884      -1.89993930       0.78284971
H        2.82978881       2.12346922       0.20405992
