13
Properties=species:S:1:pos:R:3 atomization_energy=-1273.48 smiles=C.C.O.N.C.C.H.H.H.H.H.H.H pbc="F F F"
C        0.42649985       1.44649940       0.20215992
C        1.33819946       0.28523989      -0.12879995
O        0.90085962      -0.83455964       0.64078974
N       -0.33472987      -1.34316950       0.18984992
C       -1.22630947      -0.43774981      -0.06720998
C       -1.02529961       1.04989958       0.01181999
H        0.67506976       2.32437915      -0.40177984
H        0.57342978       1.72749927       1.25173954
H        2.37089919       0.51286981       0.15832993
H        1.33068945       0.03443999      -1.19665954
H       -2.22935902      -0.78063967      -0.37509985
H       -1.40631943       1.47149938      -0.92507963
H       -1.65371938       1.44628946       0.81530967
