13
Properties=species:S:1:pos:R:3 atomization_energy=-1316.25 smiles=C.C.C.N.C.O.H.H.H.H.H.H.H pbc="F F F"
C        0.86063966      -0.24746990      -0.20922992
C        2.34518916      -0.26072990       0.02745999
C        3.05283879      -1.39680945      -0.04478998
N        3.00156887       0.91165965       0.32512987
C        2.47389905       2.16743920       0.44596982
O        3.15475867       3.14994873       0.71645972
H        0.61072977       0.39734985      -1.05823957
H        0.33119988       0.11269995       0.67903975
H        0.47452981      -1.24757948      -0.43521981
H        2.57632888      -2.34495903      -0.27678988
H        4.12500843      -1.42437941       0.12320995
H        4.00342843       0.88306963       0.48163981
H        1.38864943       2.23545913       0.28250988
