16
Properties=species:S:1:pos:R:3 atomization_energy=-1616.56 smiles=C.C.C.C.C.C.H.H.H.H.H.H.H.H.H.H pbc="F F F"
C        0.98477963       0.07229997      -0.10527996
C        2.46957913      -0.16106993       0.01385999
C        2.88044885      -1.58783935      -0.23503991
C        3.29150858       0.86104963       0.31810989
C        4.72732819       0.80676971       0.46803982
C        5.46382762       1.88121922       0.77435971
H        0.70921971       1.11590950       0.07846996
H        0.44450983      -0.54576980       0.61983975
H        0.63946973      -0.18939992      -1.11130963
H        2.38276910      -2.25075923       0.48104980
H        3.95392835      -1.76084927      -0.14444994
H        2.58573907      -1.89108928      -1.24548955
H        2.85027887       1.84618921       0.47249980
H        5.23690814      -0.14129994       0.32765986
H        5.02423780       2.86135899       0.92916961
H        6.54162728       1.79782929       0.87786965
