12
Properties=species:S:1:pos:R:3 atomization_energy=-1192.89 smiles=O.C.C.O.C.C.H.H.H.H.H.H pbc="F F F"
O        0.95673963      -0.00962000      -0.17614993
C        2.37198901      -0.00436000       0.01312999
C        2.92738878       1.43281939       0.00000000
O        2.46703891       2.15796921       1.14331961
C        4.37138821       1.43281939       0.00000000
C        5.56154794       1.43281939       0.00000000
H        0.66179972      -0.93436965      -0.12345995
H        2.81823885      -0.60208976      -0.78927968
H        2.57863897      -0.49139979       0.97285963
H        2.53924906       1.96141918      -0.87701967
H        2.72893882       1.65148940       1.92863921
H        6.62738760       1.44534940      -0.00069000
