13
Properties=species:S:1:pos:R:3 atomization_energy=-1306.83 smiles=C.C.C.O.C.N.H.H.H.H.H.H.H pbc="F F F"
C        0.99107959      -0.02764999      -0.03168999
C        2.51999896       0.00000000       0.00000000
C        3.03546882      -0.75056973       1.22752949
O        2.98874893      -0.71471971      -1.15557950
C        3.00201878       1.36116943       0.00000000
N        3.38622869       2.44615901       0.00000000
H        0.60761979       0.46812981      -0.93190961
H        0.55570976       0.47242982       0.84071968
H        0.61838972      -1.05810955      -0.06346997
H        2.70394895      -0.28398990       2.16101913
H        4.13243833      -0.78256969       1.23547956
H        2.69634898      -1.79337931       1.22080953
H        2.78536892      -0.17477992      -1.94032921
