13
Properties=species:S:1:pos:R:3 atomization_energy=-1267.53 smiles=C.C.C.C.N.O.H.H.H.H.H.H.H pbc="F F F"
C        1.01819958       0.05771998       0.06667998
C        2.50325905      -0.08877996      -0.00333000
C        3.15021873      -1.25452957       0.13849994
C        3.28002878       1.16034958      -0.24728990
N        4.56998805       1.21847950      -0.33552986
O        4.95238799       2.54381902      -0.56717979
H        0.73860974       0.73703973       0.87847966
H        0.52229981      -0.90168966       0.24870991
H        0.62882974       0.46143981      -0.87356968
H        2.61404887      -2.18084909       0.31691989
H        4.23332844      -1.31774952       0.08059996
H        2.66753906       2.07466923      -0.35335987
H        5.92400767       2.47401890      -0.61560973
