11
Properties=species:S:1:pos:R:3 atomization_energy=-1170.86 smiles=C.C.C.O.C.N.H.H.H.H.H pbc="F F F"
C        0.96797961      -0.12032995       0.01511999
C        2.47100909       0.08148997       0.01908999
C        2.81209888       1.55005943       0.00480000
O        2.91686884       2.20430909      -1.02833958
C        2.96945871       2.17919910       1.30473945
N        3.08680889       2.64567884       2.36222909
H        0.72587968      -1.18728960      -0.00140000
H        0.51112979       0.34909985      -0.86251965
H        0.50807980       0.32165987       0.90516963
H        2.91939896      -0.38212986      -0.86678966
H        2.92293892      -0.39752985       0.89464962
