15
Properties=species:S:1:pos:R:3 atomization_energy=-1416.59 smiles=C.C.C.N.C.O.H.H.H.H.H.H.H.H.H pbc="F F F"
C        1.00898962      -0.00920000      -0.07296997
C        2.49700905      -0.02790999      -0.00334000
C        3.35468880      -0.73822972      -1.01668963
N        2.76155895      -1.47850939      -2.13054913
C        3.30610873       0.77263970      -0.98819960
O        4.43339811       1.46140940      -0.42348982
H        0.61410974       0.74995972       0.60977974
H        0.60483979      -0.98000963       0.23031991
H        0.63697973       0.22057991      -1.07665962
H        2.83562877      -0.05282998       1.02737958
H        4.25890852      -1.20552949      -0.63202974
H        1.97756926      -0.97685965      -2.54558888
H        2.38655912      -2.37065897      -1.80891925
H        2.78019891       1.27769951      -1.79243925
H        5.14086783       0.85079968      -0.15670993
