10
Properties=species:S:1:pos:R:3 atomization_energy=-1095.1 smiles=O.C.C.C.C.O.H.H.H.H pbc="F F F"
O        1.25504949      -0.45713983      -0.34531986
C        2.41294893      -0.22016992      -0.02718999
C        2.97987873       1.13163957      -0.18319992
C        4.24723820       1.36064949       0.17274994
C        4.81348821       2.71303893       0.01627999
O        5.97129757       2.94987881       0.33448987
H        3.08313873      -0.99254960       0.38556986
H        2.31507897       1.88399928      -0.59012976
H        4.91251814       0.60819977       0.57984978
H        4.14435846       3.48593865      -0.39724983
