13
Properties=species:S:1:pos:R:3 atomization_energy=-1308.78 smiles=C.C.C.N.C.O.H.H.H.H.H.H.H pbc="F F F"
C        1.04795959      -0.57545979      -0.80719968
C        2.15228923      -0.46935983      -0.05601998
C        3.11857866       0.66882974      -0.12034995
N        4.37734827       0.14568995      -0.58223974
C        5.54683804       0.82229969      -0.35899985
O        5.66577791       1.84808927       0.29425988
H        0.38087984      -1.42544942      -0.69605975
H        0.77875968       0.17997992      -1.53947943
H        2.36762898      -1.24525955       0.67587974
H        3.23933884       1.12687960       0.86651966
H        2.79954893       1.44547948      -0.82357970
H        4.37386812      -0.59858973      -1.26674946
H        6.40482740       0.32916988      -0.84467964
