16
Properties=species:S:1:pos:R:3 atomization_energy=-1596.25 smiles=C.C.C.C.C.C.H.H.H.H.H.H.H.H.H.H pbc="F F F"
C        0.98386960      -0.00678000      -0.01672999
C        2.51999896       0.00000000       0.00000000
C        3.01472870      -0.72361974       1.26198949
C        3.04282881      -0.73660970      -1.24249955
C        3.00201878       1.36116943       0.00000000
C        3.39929870       2.48306901       0.00000000
H        0.59155978       0.50109982      -0.90610962
H        0.57240980       0.50814980       0.85986967
H        0.59108976      -1.02999960      -0.01681999
H        2.66151894      -0.22503991       2.17274926
H        4.11033840      -0.74448969       1.30687947
H        2.66013894      -1.76021932       1.29058947
H        2.70426890      -0.25219990      -2.16637916
H        2.69463893      -1.77564925      -1.26409948
H        4.13924824      -0.75194973      -1.26620948
H        3.75502849       3.48760858       0.00000000
