12
Properties=species:S:1:pos:R:3 atomization_energy=-1230.43 smiles=O.C.C.O.C.C.H.H.H.H.H.H pbc="F F F"
O        0.97455965      -0.39193983       0.02498999
C        2.31558919      -0.47870980       0.48522982
C        3.09843884       0.79906969       0.20301993
O        2.55357895       1.78507925      -0.29289988
C        4.54325809       0.79239969       0.56676975
C        5.33573771       1.82324927       0.25045990
H        0.82590966       0.54875980      -0.20494991
H        2.79586893      -1.31858953      -0.02379999
H        2.29671910      -0.65709973       1.56366942
H        4.92685812      -0.07675997       1.08800961
H        4.95478817       2.69380902      -0.27858989
H        6.38897746       1.81904935       0.51155980
