18
Properties=species:S:1:pos:R:3 atomization_energy=-1751.69 smiles=C.C.C.C.C.C.H.H.H.H.H.H.H.H.H.H.H.H pbc="F F F"
C        0.91790964      -0.05864998       0.05204998
C        2.43684899      -0.12044996      -0.12774995
C        2.77648888      -0.93090962      -1.38156940
C        3.01486874       1.30665944      -0.17999993
C        4.51607798       1.33856950      -0.25291990
C        5.20520776       1.91080922      -1.24778954
H        0.65576976       0.48557981       0.96521960
H        0.49386980      -1.06512960       0.13044995
H        0.43825984       0.44597982      -0.79342971
H        2.85800879      -0.64353977       0.74107968
H        2.42296901      -0.42693982      -2.28742902
H        2.30928898      -1.92070919      -1.34130944
H        3.85596856      -1.08442954      -1.47611943
H        2.71554887       1.84971932       0.72526974
H        2.57762889       1.85113932      -1.02692961
H        5.05944810       0.87140966       0.56608978
H        4.70712806       2.39308895      -2.08339914
H        6.29078729       1.90697922      -1.24635946
