18
Properties=species:S:1:pos:R:3 atomization_energy=-1755.17 smiles=C.C.C.C.C.C.H.H.H.H.H.H.H.H.H.H.H.H pbc="F F F"
C        0.94354965      -0.14254994      -0.00114000
C        2.44652893      -0.01062000      -0.00347000
C        3.14970876      -1.34873946      -0.00854000
C        3.13046876       1.15967951      -0.00111000
C        2.50378894       2.53353905       0.00217000
C        4.64169807       1.23454947      -0.00241000
H        0.40560985       0.80529969       0.01161000
H        0.62062973      -0.70542975       0.88157968
H        0.61632976      -0.68619971      -0.89424967
H        2.43463908      -2.17893919      -0.00376000
H        3.77643854      -1.46198939       0.88212963
H        3.76422848      -1.46085945      -0.90782964
H        1.41373949       2.53419890      -0.01020999
H        2.83369894       3.09610881      -0.87809966
H        2.81583894       3.08356870       0.89669962
H        5.13301781       0.25891989      -0.00158000
H        4.99081804       1.77377935       0.88482964
H        4.98935806       1.77156931      -0.89157963
