14
Properties=species:S:1:pos:R:3 atomization_energy=-1353.04 smiles=O.C.C.C.C.O.H.H.H.H.H.H.H.H pbc="F F F"
O        2.58950890      -0.85703964       1.25148948
C        2.66007889      -0.23488992      -0.02025999
C        3.02084874       1.19438956       0.20295992
C        4.08850847       1.80196930      -0.33985986
C        4.45627799       3.22805863      -0.09899996
O        5.73767769       3.25811860       0.50713980
H        2.39858901      -1.79622926       1.09208955
H        1.68140933      -0.30620988      -0.50388981
H        3.40144856      -0.75951967      -0.63130978
H        2.35891901       1.74902931       0.86434968
H        4.75512803       1.24630950      -0.99562962
H        3.74613861       3.74214849       0.55650978
H        4.50673819       3.77161851      -1.04673957
H        5.68381758       2.68832888       1.29428953
