18
Properties=species:S:1:pos:R:3 atomization_energy=-1753.72 smiles=C.C.C.C.C.C.H.H.H.H.H.H.H.H.H.H.H.H pbc="F F F"
C        0.95955963      -0.13435995      -0.23919991
C        2.46612901       0.05175998      -0.04437998
C        3.24960873      -0.83988970      -1.01058958
C        2.87644890       1.51362936      -0.15394993
C        2.68850905       2.21225904      -1.47437948
C        3.39371864       2.16802915       0.90031963
H        0.39234984       0.50710981       0.44402984
H        0.67281972      -1.17207957      -0.03634998
H        0.64821976       0.09930996      -1.26278951
H        2.69932901      -0.30209987       0.96956961
H        2.99563883      -0.63122973      -2.05529915
H        3.02696878      -1.89595928      -0.82250969
H        4.32911818      -0.70015975      -0.88774962
H        1.63681937       2.19929905      -1.77540928
H        3.28399870       1.73143930      -2.25617905
H        2.99968875       3.26171861      -1.42853947
H        3.53575868       1.68107928       1.86043924
H        3.68992854       3.21072877       0.83464966
