10
Properties=species:S:1:pos:R:3 atomization_energy=-1062.97 smiles=O.C.C.C.C.O.H.H.H.H pbc="F F F"
O        1.00147961       0.00051000      -0.01232999
C        2.41999907       0.00000000       0.00000000
C        2.90201889       1.36116943       0.00000000
C        3.29929881       2.48306901       0.00000000
C        3.80504862       3.83191861      -0.00004000
O        3.05020875       4.79325832       0.00302000
H        0.71877972      -0.92836966      -0.01001000
H        2.77288887      -0.54163977      -0.88291962
H        2.75751887      -0.53608980       0.89227966
H        4.90154829       3.92798844      -0.00282000
