15
Properties=species:S:1:pos:R:3 atomization_energy=-1455.05 smiles=C.C.C.N.C.O.H.H.H.H.H.H.H.H.H pbc="F F F"
C        3.32447869      -2.10990919      -0.65913971
C        2.46312904      -0.87933967      -0.41154985
C        3.29047882       0.39116985      -0.22656991
N        4.01860842       0.75939969      -1.42199942
C        3.44056873       1.48387938      -2.43217910
O        2.29971907       1.92057924      -2.43876898
H        2.69464903      -3.00197891      -0.73179969
H        4.03487849      -2.26199908       0.15914995
H        3.88776835      -2.02023924      -1.59282933
H        1.86493932      -1.04560957       0.49228980
H        1.76102930      -0.75796972      -1.24512947
H        4.02317839       0.26303990       0.57671981
H        2.62820894       1.21955948       0.04909998
H        4.95384798       0.39899984      -1.55756944
H        4.13707845       1.63958934      -3.27329860
