12
Properties=species:S:1:pos:R:3 atomization_energy=-1102.46 smiles=C.C.O.N.C.H.H.H.H.H.H.H pbc="F F F"
C        0.91879961      -0.21391991      -0.24593990
C        2.41978913      -0.01593000      -0.18220993
O        2.68320883       1.33860949       0.18230993
N        4.07280842       1.51755942       0.24866990
C        4.31287814       2.73865888       0.58863975
H        0.67215975      -1.24438951      -0.51642979
H        0.47180981       0.46157982      -0.98287964
H        0.45773981       0.01844999       0.71974974
H        2.86835891      -0.22578990      -1.15955952
H        2.85533887      -0.68744970       0.56597977
H        5.35202771       3.08421871       0.69685970
H        3.51597869       3.47589864       0.78274966
