15
Properties=species:S:1:pos:R:3 atomization_energy=-1464.5 smiles=C.C.C.C.N.O.H.H.H.H.H.H.H.H.H pbc="F F F"
C        1.62827934      -0.93439961      -0.27862988
C        3.12172876      -0.65520972      -0.31276989
C        3.43120876       0.79666971       0.04175998
C        4.91715801       1.08386961       0.00867000
N        5.24201785       2.37736896       0.29842988
O        5.78624792       0.26181989      -0.24968990
H        1.43356944      -1.98290923      -0.52453978
H        1.09603955      -0.31097989      -1.00422958
H        1.21409954      -0.73600971       0.71501973
H        3.50997850      -0.88678963      -1.31189948
H        3.63127868      -1.32759953       0.38818984
H        3.06002872       1.02448957       1.04757958
H        2.93518884       1.46898944      -0.66794973
H        4.55923823       3.07763867       0.54862978
H        6.22263767       2.62515902       0.29873990
