15
Properties=species:S:1:pos:R:3 atomization_energy=-1417.09 smiles=C.C.O.C.C.N.H.H.H.H.H.H.H.H.H pbc="F F F"
C        1.00239961       0.08095997       0.12966995
C        2.49466894      -0.12571995      -0.03111999
O        3.24561861       0.93205962       0.63238976
C        4.11850838      -0.05813998       1.24390945
C        3.14339872      -1.18691955       0.88186967
N        3.81908858      -2.22160917       0.08686996
H        0.45207983      -0.76714972      -0.28920988
H        0.67944973       0.98421958      -0.39740984
H        0.71945968       0.18286993       1.18198950
H        2.78146889      -0.16964994      -1.09019959
H        5.10042822      -0.05911998       0.75890972
H        4.24010833       0.12177995       2.31572898
H        2.53549891      -1.55478938       1.71276931
H        4.38683845      -1.86379928      -0.68187974
H        3.17965872      -2.89899874      -0.32765986
