13
Properties=species:S:1:pos:R:3 atomization_energy=-1280.77 smiles=C.O.C.C.N.C.H.H.H.H.H.H.H pbc="F F F"
C        0.66539973       1.20892952      -0.28303988
O       -0.76310971       1.37955945      -0.19670992
C       -1.35696950       0.06983997      -0.30265989
C       -0.33589987      -0.89575963       0.19858992
N        0.77552971      -1.34566947      -0.63528974
C        0.95449963      -0.16950994       0.21088991
H        0.97597964       1.34549953      -1.32480950
H        1.14193961       1.97547920       0.33457986
H       -2.26841914       0.05507998       0.30138988
H       -1.61928941      -0.11586996      -1.35003947
H       -0.63104975      -1.48446945       1.05321956
H        1.23099955      -2.16176906      -0.22334991
H        1.59841935      -0.22904991       1.07508962
