12
Properties=species:S:1:pos:R:3 atomization_energy=-1243.51 smiles=O.C.O.C.C.C.H.H.H.H.H.H pbc="F F F"
O        1.09827962       0.38797984      -0.67607972
C        2.23850906       0.08113997      -0.01670999
O        2.41897915      -0.98892960       0.53883977
C        3.28357882       1.13938955      -0.00411000
C        3.53518867       2.05122917      -1.18252949
C        2.95302891       2.61119904       0.08478997
H        1.10568958       1.27825956      -1.06592961
H        4.17021838       0.82343966       0.54271981
H        2.90780888       1.97527923      -2.06223914
H        4.56803803       2.29153899      -1.41576949
H        3.59295864       3.22963873       0.70682975
H        1.91725919       2.92803878       0.09414997
