13
Properties=species:S:1:pos:R:3 atomization_energy=-1262.72 smiles=C.N.C.C.C.O.H.H.H.H.H.H.H pbc="F F F"
C        0.06524997       0.90942967      -0.12117995
N       -0.72684971      -0.29966989       0.02584999
C        0.73512971      -0.44031984      -0.00648000
C        1.44999949      -0.90049966       1.25253955
C        1.16259949      -2.21675911       1.93176925
O        2.29777915      -2.05085913       1.07820957
H        0.04289998       1.39600943      -1.08797958
H        0.08449997       1.57162934       0.73523973
H       -1.12718959      -0.59325974      -0.86717964
H        1.13380950      -0.85053966      -0.93271965
H        1.84227921      -0.10975996       1.88570921
H        0.33416985      -2.81013877       1.56589940
H        1.33849948      -2.29041915       2.99697871
