14
Properties=species:S:1:pos:R:3 atomization_energy=-1277.37 smiles=C.C.O.C.N.H.H.H.H.H.H.H.H.H pbc="F F F"
C        0.88873964      -0.01698999       0.02257999
C        2.40670903       0.01059000      -0.02672999
O        2.83752882      -0.58450977      -1.25330954
C        2.95821887       1.44452945       0.05192998
N        4.41614824       1.42937948      -0.13812995
H        0.51361980       0.42057984       0.95233961
H        0.52335979      -1.04675957      -0.05214998
H        0.45851983       0.53049978      -0.82301965
H        2.81250892      -0.59403976       0.79276967
H        3.73064849      -0.21027992      -1.40513940
H        2.70800896       1.90528923       1.01290958
H        2.52526889       2.05565923      -0.74756970
H        4.85303811       0.94803963       0.64925974
H        4.76213830       2.38910918      -0.10261996
