17
Properties=species:S:1:pos:R:3 atomization_energy=-1573.02 smiles=C.C.C.N.C.O.H.H.H.H.H.H.H.H.H.H.H pbc="F F F"
C        1.01045957      -0.02576999      -0.07210997
C        2.53229909       0.01264000       0.09858996
C        2.93694886      -0.73807971       1.37422946
N        3.18555873      -0.65626976      -1.04660956
C        3.02713886       1.47826942       0.15330994
O        4.45350841       1.51491940       0.10849995
H        0.69743974       0.48701980      -0.98976961
H        0.50891981       0.46667982       0.76942973
H        0.63859975      -1.05566958      -0.12385995
H        2.50224896      -0.26363989       2.26190899
H        4.02490838      -0.75540970       1.50903945
H        2.59026892      -1.77821924       1.35358952
H        2.85305880      -0.24092991      -1.91826928
H        2.89133897      -1.63331941      -1.07972961
H        2.69807897       1.98102923       1.06888959
H        2.65656896       2.05256918      -0.70352970
H        4.69656800       0.74639971      -0.44945981
