15
Properties=species:S:1:pos:R:3 atomization_energy=-1420.67 smiles=C.C.O.C.C.N.H.H.H.H.H.H.H.H.H pbc="F F F"
C        1.04023958      -0.11033996      -0.06815997
C        2.51029909       0.10909996      -0.03593999
O        3.19919875      -0.31518988      -1.21960957
C        3.16939868       1.09933954      -0.96127964
C        4.49382842       1.70094936      -0.62919972
N        5.21224780       1.96300924      -1.86960921
H        0.54565978       0.55538980       0.64562976
H        0.80686970      -1.14272954       0.20966991
H        0.61742973       0.07931997      -1.06032963
H        2.95762891      -0.11318996       0.92312962
H        2.55340887       1.72587931      -1.59319937
H        5.08730800       1.03421959       0.00619000
H        4.34634837       2.63973897      -0.08626997
H        5.30726768       1.08017952      -2.37441896
H        6.16020739       2.26277903      -1.64958935
