15
Properties=species:S:1:pos:R:3 atomization_energy=-1400.78 smiles=C.C.C.N.O.C.H.H.H.H.H.H.H.H.H pbc="F F F"
C        2.14157928      -0.85259968       1.51600935
C        2.88322879      -0.61374973       0.21486992
C        2.66458905       0.79755968      -0.25038990
N        3.65643863       1.61842934      -0.36213986
O        3.16614865       2.85410875      -0.81055966
C        4.26481812       3.74734853      -0.95195960
H        2.29295911      -1.88038930       1.85898922
H        1.06637952      -0.68757971       1.39122939
H        2.49321904      -0.17247992       2.29844908
H        2.50534910      -1.28787943      -0.56070976
H        3.95393844      -0.80118965       0.34690987
H        1.62824932       1.09568956      -0.49035981
H        3.88045857       4.72084833      -1.26754948
H        4.95707782       3.37689874      -1.71437931
H        4.78424807       3.86642845       0.00428000
