11
Properties=species:S:1:pos:R:3 atomization_energy=-1113.95 smiles=C.C.C.C.N.O.H.H.H.H.H pbc="F F F"
C        0.99999962       0.00000000       0.00000000
C        2.44399905       0.00000000       0.00000000
C        3.63415853       0.00000000       0.00000000
C        5.06874803      -0.02636999      -0.00000000
N        5.58691783       1.15116951       0.00000000
O        6.98276741       1.03085961       0.00000000
H        0.60595976       1.02086963       0.01167999
H        0.60591977      -0.52052980       0.87824966
H        0.60591977      -0.50028980      -0.88992963
H        5.61582793      -0.98104961      -0.00000000
H        7.27144699       1.96279918       0.00000000
