15
Properties=species:S:1:pos:R:3 atomization_energy=-1456.9 smiles=C.C.C.N.C.O.H.H.H.H.H.H.H.H.H pbc="F F F"
C        0.94243965      -0.55032980       0.24697991
C        2.32635919      -0.07275997      -0.17760993
C        2.93903891      -1.02682962      -1.20023949
N        2.24622913       1.27494947      -0.71997974
C        3.31731879       2.13210904      -0.69622975
O        4.40118802       1.91165920      -0.17928994
H        0.51074979       0.12630996       0.99330963
H        0.99071963      -1.55236940       0.68666974
H        0.25273991      -0.58384974      -0.60438976
H        2.97612883      -0.04593998       0.70540969
H        2.33725915      -1.06689958      -2.11518922
H        3.01187887      -2.04096926      -0.79390971
H        3.94677854      -0.70458974      -1.48368937
H        1.44776939       1.52832942      -1.28755948
H        3.09086890       3.08108880      -1.21111950
