14
Properties=species:S:1:pos:R:3 atomization_energy=-1366.75 smiles=O.C.C.C.C.O.H.H.H.H.H.H.H.H pbc="F F F"
O        2.70310894      -0.78794971      -1.17809956
C        2.26855918      -0.09566996      -0.01539999
C        2.90726889       1.28849953       0.02700999
C        4.43379831       1.25334954       0.00645000
C        5.04050812       0.67998971       1.26315955
O        4.41013822       0.39699983       2.27697922
H        2.26639923      -1.65752933      -1.16426954
H        2.52816894      -0.69090973       0.86409969
H        1.17889958      -0.00058000      -0.05785998
H        2.54981896       1.82650926       0.91296963
H        2.57620902       1.85261924      -0.85400965
H        4.82176821       2.27266916      -0.09772996
H        4.80365789       0.67082971      -0.84333970
H        6.13691771       0.55689975       1.23537952
