12
Properties=species:S:1:pos:R:3 atomization_energy=-1233.64 smiles=O.C.C.C.C.O.H.H.H.H.H.H pbc="F F F"
O        2.55344900      -1.16883951      -0.29007989
C        2.11838929      -0.02494999      -0.21674991
C        2.97735895       1.18794957       0.03958999
C        4.46213814       0.86469967       0.01118999
C        4.87750819       0.17302993       1.28350943
O        5.48695781       0.74388971       2.18308904
H        1.03583962       0.17497993      -0.31022986
H        2.67576884       1.61825940       0.99986961
H        2.74739888       1.91082929      -0.75012973
H        5.03985812       1.79306932      -0.06793997
H        4.73736795       0.22838991      -0.83566965
H        4.57144803      -0.88247968       1.38625948
