12
Properties=species:S:1:pos:R:3 atomization_energy=-1291.01 smiles=C.C.C.C.C.C.H.H.H.H.H.H pbc="F F F"
C        0.99020961      -0.02532999       0.02160999
C        2.51999896       0.00000000       0.00000000
C        3.01775870      -0.77080973      -1.15831957
C        3.42630874      -1.39420943      -2.10138922
C        3.00201878       1.36116943       0.00000000
C        3.39929870       2.48306901       0.00000000
H        0.59953976       0.50319981       0.89924962
H        0.61484977      -1.05495958       0.05428998
H        0.56621980       0.45381981      -0.86994967
H        2.87255896      -0.49825980       0.91210962
H        3.79202858      -1.93917921      -2.94047897
H        3.75759848       3.48667874      -0.00467000
