12
Properties=species:S:1:pos:R:3 atomization_energy=-1222.74 smiles=O.C.C.C.C.O.H.H.H.H.H.H pbc="F F F"
O        1.40552939      -0.24174990       0.14619994
C        2.69600884       0.31423988      -0.04585998
C        3.15600872      -0.06736997      -1.41763939
C        4.37879817      -0.53148981      -1.71234931
C        2.67929896       1.83598922       0.06421998
O        1.68168929       2.46932907       0.40646986
H        0.87004966       0.45743982       0.57180975
H        3.35867866      -0.07314997       0.73430970
H        2.42263896       0.02634999      -2.21685903
H        5.14442772      -0.66175973      -0.95364965
H        4.63494820      -0.80478966      -2.73219894
H        3.64286851       2.34221897      -0.11822995
