11
Properties=species:S:1:pos:R:3 atomization_energy=-1162.86 smiles=C.C.N.O.C.C.H.H.H.H.H pbc="F F F"
C        0.96935961       0.04376998      -0.00528000
C        2.44732907      -0.02818999      -0.00186000
N        3.18537881       1.08821955      -0.00100000
O        4.50381821       0.66629974       0.00212000
C        4.54206810      -0.68832970       0.00295000
C        3.26333883      -1.18201953       0.00045000
H        0.61418973       1.07973958       0.00488000
H        0.56103975      -0.46184982       0.87563968
H        0.56630975      -0.44292983      -0.89917966
H        5.52669797      -1.12891957       0.00529000
H        2.96283880      -2.21819916       0.00031000
