14
Properties=species:S:1:pos:R:3 atomization_energy=-1352.82 smiles=O.C.C.C.C.O.H.H.H.H.H.H.H.H pbc="F F F"
O        0.78969968      -0.00176000      -0.04624998
C        2.20966911       0.04194998      -0.08740997
C        2.72037899       1.45469941       0.04228998
C        1.92937929       2.53204903       0.20536992
C        4.21371826       1.59254937      -0.04647998
O        4.81032802       0.90868965       1.04346961
H        0.54129982      -0.93855961      -0.10670996
H        2.53480903      -0.38905985      -1.03999961
H        2.59066887      -0.57590976       0.73243973
H        0.84850965       2.43258913       0.25970990
H        2.33275907       3.53617856       0.28410989
H        4.54002825       2.63769887      -0.01520999
H        4.58630833       1.15679953      -0.98006961
H        4.42289810       1.28920947       1.85099927
