17
Properties=species:S:1:pos:R:3 atomization_energy=-1571.53 smiles=C.C.C.N.C.O.H.H.H.H.H.H.H.H.H.H.H pbc="F F F"
C        1.31313943       0.00934000       1.10188959
C        2.75916887       0.00794000       0.62488978
C        3.23262885       1.37022950       0.10063997
N        3.20414873       2.42308912       1.13583950
C        4.66701799       1.27475947      -0.45631982
O        5.10491820       2.57220907      -0.85786969
H        1.00325962      -1.00803959       1.36227943
H        0.64131976       0.37804985       0.32018988
H        1.18422957       0.63192976       1.99247926
H        2.85619882      -0.73450973      -0.17645993
H        3.40529863      -0.32941987       1.44493949
H        2.57371902       1.70466935      -0.71025975
H        3.69790851       2.09344912       1.96666919
H        2.23870915       2.57614897       1.43350939
H        4.70927793       0.61282973      -1.32572950
H        5.36521808       0.90161964       0.30046988
H        4.68336805       3.17801882      -0.21171991
