13
Properties=species:S:1:pos:R:3 atomization_energy=-1322.1 smiles=C.C.C.C.N.O.H.H.H.H.H.H.H pbc="F F F"
C        1.00966958      -0.00768000      -0.11005996
C        2.49937895      -0.11193996       0.00716000
C        3.15510865      -1.28495946      -0.01440999
C        3.21406863       1.18168948       0.20737993
N        4.45857825       1.26509947      -0.33261988
O        2.68856885       2.14200925       0.75443967
H        0.73683970       0.65127972      -0.94071963
H        0.57711975       0.39614986       0.81195966
H        0.54572980      -0.98233959      -0.29482990
H        2.61900895      -2.22052919      -0.13873994
H        4.22844836      -1.35585949       0.12553995
H        4.84498824       0.55183975      -0.93167961
H        4.92376807       2.16078926      -0.28016989
