10
Properties=species:S:1:pos:R:3 atomization_energy=-1058.82 smiles=O.C.C.O.C.C.H.H.H.H pbc="F F F"
O        1.03174958      -0.01884999       0.32107989
C        2.41999907       0.00000000       0.00000000
C        2.61154902      -0.72260973      -1.32769945
O        3.13102868      -0.25419990      -2.33723896
C        2.90201889       1.36116943       0.00000000
C        3.29929881       2.48306901       0.00000000
H        0.61106979       0.66694974      -0.22883991
H        2.94113882      -0.59110975       0.75998970
H        2.25091921      -1.76632927      -1.32991946
H        3.65957864       3.48627854      -0.00746999
