12
Properties=species:S:1:pos:R:3 atomization_energy=-1160.91 smiles=C.N.C.C.O.H.H.H.H.H.H.H pbc="F F F"
C        0.85753964       0.14636995       0.10782995
N        2.29319908       0.13302995      -0.01913999
C        3.11755873       1.21706948      -0.11308996
C        2.49620891       2.58414888      -0.01538000
O        4.32789841       1.05680961      -0.24866990
H        0.51863981      -0.86641968       0.33717988
H        0.42163982       0.47743982      -0.83813965
H        0.56069980       0.82840970       0.90815962
H        2.77150887      -0.75511971      -0.11870995
H        1.60854931       2.65551901      -0.64810974
H        3.21565882       3.33183869      -0.36037985
H        2.23482905       2.79406880       1.02458962
