15
Properties=species:S:1:pos:R:3 atomization_energy=-1418.86 smiles=C.C.N.C.C.O.H.H.H.H.H.H.H.H.H pbc="F F F"
C        0.99674959       0.02574999       0.06998997
C        2.51002909      -0.03637999       0.00144000
N        3.16980872       0.98805962       0.85023970
C        4.18515840      -0.01298999       1.24180955
C        3.20772881      -1.13957956       0.84126970
O        3.75293843      -2.26680901       0.12433995
H        0.55696977      -0.81620967      -0.47532983
H        0.62349975       0.94827960      -0.38711983
H        0.62862977      -0.01608000       1.10114951
H        2.85878899      -0.00109000      -1.03935958
H        2.59724891       1.30398952       1.63477940
H        5.09892786       0.03478999       0.63763976
H        4.46550827       0.01298999       2.29929919
H        2.60599900      -1.49003941       1.68947939
H        4.27633856      -1.87946930      -0.59899977
