13
Properties=species:S:1:pos:R:3 atomization_energy=-1280.19 smiles=C.C.C.C.N.O.H.H.H.H.H.H.H pbc="F F F"
C        1.00044959       0.00909000      -0.02584999
C        2.52167898      -0.04049998      -0.05217998
C        3.06904881      -1.24055950      -0.78629971
C        3.34029860      -0.59923974      -2.08992922
N        3.32368864       0.68888975      -2.09401913
O        3.01355889       1.09900961      -0.77273968
H        0.65994975       0.92422965       0.47123982
H        0.58592977      -0.85238969       0.50705979
H        0.58239978       0.02963999      -1.03871960
H        2.90469890      -0.00105000       0.97255961
H        2.37429910      -2.07808921      -0.87470965
H        4.01898843      -1.59069940      -0.37214984
H        3.58412856      -1.20261948      -2.97464891
