15
Properties=species:S:1:pos:R:3 atomization_energy=-1420.32 smiles=C.C.N.C.C.O.H.H.H.H.H.H.H.H.H pbc="F F F"
C        1.11922955      -0.14075995      -0.00158000
C        2.59943889      -0.00855000      -0.10235996
N        3.28509862      -0.39088985      -1.33303954
C        3.21768882       1.04101960      -0.99167963
C        4.48707805       1.73195936      -0.60681977
O        5.44221797       1.54400941      -1.64432938
H        0.73756969       0.51598979       0.78685970
H        0.84756965      -1.17031956       0.25339989
H        0.61274974       0.12384995      -0.93635966
H        3.10057886      -0.27748988       0.82026968
H        2.61811897      -0.61069974      -2.07627923
H        2.59677907       1.64750938      -1.63891939
H        4.90897793       1.33602953       0.32362988
H        4.31935851       2.80553877      -0.47686980
H        5.38224792       0.59333979      -1.86244931
