14
Properties=species:S:1:pos:R:3 atomization_energy=-1275.79 smiles=C.C.N.C.O.H.H.H.H.H.H.H.H.H pbc="F F F"
C        0.98220964      -0.03710999      -0.04584998
C        2.49763913       0.04797998       0.07808997
N        3.16043865      -0.65941973      -1.03374962
C        2.98055876       1.50849946       0.10828996
O        4.40699821       1.53385939       0.12169995
H        0.49813982       0.46946981       0.79532970
H        0.64679976      -1.07955954      -0.04533998
H        0.62827972       0.43166983      -0.97030963
H        2.81785885      -0.44358983       1.00583958
H        2.82641893      -0.28122990      -1.92193930
H        2.86577882      -1.63704937      -1.02675960
H        2.61804908       2.02544925       1.00185962
H        2.64115884       2.06034918      -0.77474969
H        4.66849817       0.75606974      -0.41489984
