10
Properties=species:S:1:pos:R:3 atomization_energy=-1074.69 smiles=O.C.O.C.C.C.H.H.H.H pbc="F F F"
O        3.17870869      -0.91713965      -1.34247950
C        2.51837899       0.08040997      -1.10436951
O        2.92280897       1.18109953      -0.43348983
C        4.28908835       1.16826950       0.00000000
C        4.77110817       2.52943892       0.00000000
C        5.16838809       3.65133851       0.00000000
H        1.46959944       0.21486992      -1.41170948
H        4.91816784       0.55649981      -0.65651975
H        4.32120810       0.74358968       1.00857958
H        5.52108764       4.65704839      -0.00153000
