14
Properties=species:S:1:pos:R:3 atomization_energy=-1458.99 smiles=C.C.C.C.C.C.H.H.H.H.H.H.H.H pbc="F F F"
C        0.90458964       0.05215998      -0.01023000
C        2.40769893       0.00759000      -0.00581000
C        3.01753891      -1.36950948      -0.00902000
C        3.13901875       1.13798949       0.00000000
C        4.54501836       1.13798949       0.00000000
C        5.73517759       1.13798949       0.00000000
H        0.52002981       1.07711962      -0.00888000
H        0.50902980      -0.45362981       0.87627965
H        0.51444981      -0.44942982      -0.90154962
H        2.24557913      -2.14505918       0.02703999
H        3.66143857      -1.51328947       0.86429966
H        3.60148870      -1.53246942      -0.92004966
H        2.64645905       2.10648922       0.00232000
H        6.80012753       1.13616955      -0.00000000
