9
Properties=species:S:1:pos:R:3 atomization_energy=-861.73 smiles=C.C.C.H.H.H.H.H.H pbc="F F F"
C        0.97511963      -0.01044000       0.00782000
C        2.46736896       0.02624999       0.01090999
C        3.17571882       1.16220951      -0.01009000
H        0.62835978      -1.04799959      -0.03703999
H        0.57102980       0.51412979      -0.86361968
H        0.57262977       0.43806983       0.92138967
H        2.98992883      -0.92700965       0.03014999
H        2.69153904       2.13385921      -0.02770999
H        4.26141821       1.14093950      -0.00757000
