10
Properties=species:S:1:pos:R:3 atomization_energy=-1017.72 smiles=C.C.N.C.O.H.H.H.H.H pbc="F F F"
C        0.92365964      -0.36305986       0.01916999
C        2.18647911       0.05571998      -0.08773996
N        2.50057904       1.38323945      -0.15683993
C        3.76740862       1.88761923      -0.26701990
O        4.01017854       3.08581874      -0.32640988
H        0.69878972      -1.42392938       0.07246997
H        0.08471997       0.32458987       0.05664997
H        3.00888875      -0.65539972      -0.12319995
H        1.76573932       2.08094913      -0.12732995
H        4.55720798       1.11849955      -0.29807989
