13
Properties=species:S:1:pos:R:3 atomization_energy=-1324.45 smiles=C.C.C.C.N.O.H.H.H.H.H.H.H pbc="F F F"
C        0.91505962       0.00143000      -0.09603996
C        2.40313905       0.06399997      -0.19211993
C        3.15125884       1.03070960       0.36122986
C        4.62516835       1.01025960       0.21304992
N        5.25150802       2.05045918       0.82432969
O        5.24223788       0.15032994      -0.39627984
H        0.61168977      -0.93085966       0.38992986
H        0.47536982       0.02649999      -1.09774960
H        0.50225981       0.83630969       0.47904982
H        2.88512884      -0.73706969      -0.75162971
H        2.70320886       1.83990932       0.92284966
H        4.77427796       2.77741898       1.33521943
H        6.25962741       2.08649915       0.75505972
