10
Properties=species:S:1:pos:R:3 atomization_energy=-1088.49 smiles=O.C.O.C.C.C.H.H.H.H pbc="F F F"
O        2.62125898      -0.80059970       1.13856960
C        2.20555914      -0.03676999       0.10186996
O        1.17411954      -0.29467989      -0.50579980
C        3.03943875       1.19493952      -0.18078994
C        4.47925830       1.03041960       0.08644996
C        5.65523753       0.90827967       0.29890987
H        3.44583867      -0.48952980       1.55937941
H        2.63523889       2.01356924       0.42388983
H        2.90365879       1.45323942      -1.23708956
H        6.70315713       0.80765968       0.47423982
