15
Properties=species:S:1:pos:R:3 atomization_energy=-1418.76 smiles=C.C.N.C.O.C.H.H.H.H.H.H.H.H.H pbc="F F F"
C        0.85241965      -0.02717999       0.06903998
C        2.35720896       0.00167000      -0.00594000
N        2.86364889       0.03698999      -1.39336942
C        3.13422874       1.02423957       0.85047966
O        4.09102850       0.00156000       1.25005952
C        3.16898864      -1.03509959       0.80001966
H        0.50744980      -0.05842998       1.10825957
H        0.44619982      -0.90886962      -0.43853983
H        0.41425983       0.86280964      -0.39569985
H        3.88481835       0.01189999      -1.44645941
H        2.58376886       0.86739967      -1.91383922
H        2.60203891       1.41616944       1.72422931
H        3.61620870       1.85242924       0.32186987
H        3.67974849      -1.81982930       0.23349990
H        2.65166894      -1.48629936       1.65387936
