18
Properties=species:S:1:pos:R:3 atomization_energy=-1749.64 smiles=C.C.C.C.C.C.H.H.H.H.H.H.H.H.H.H.H.H pbc="F F F"
C        1.03046957       0.01657999      -0.05827998
C        2.51964897      -0.00795000      -0.01023000
C        3.34845874      -0.75667968      -1.03460956
C        2.72843896      -1.51930946      -2.15509919
C        3.32801865       0.75348971      -1.03786962
C        4.53920817       1.51679939      -0.62309974
H        0.64243973       0.69193974       0.71079974
H        0.62871972      -0.98262964       0.13555995
H        0.64947978       0.36059985      -1.02436959
H        2.87789880      -0.03830999       1.01503957
H        4.24200838      -1.25579955      -0.67381971
H        1.84938927      -1.01966960      -2.57201906
H        2.42605905      -2.51362910      -1.80999923
H        3.45416863      -1.64843935      -2.96439871
H        2.79953884       1.25669949      -1.83984926
H        5.07760788       1.02479962       0.19349993
H        4.25550811       2.51972896      -0.28837990
H        5.22539779       1.62088932      -1.46931948
