15
Properties=species:S:1:pos:R:3 atomization_energy=-1416.3 smiles=C.C.O.C.N.C.H.H.H.H.H.H.H.H.H pbc="F F F"
C        0.94193965      -0.01268000       0.04084998
C        2.45798905       0.00369000      -0.04200999
O        2.84913884       0.04208999      -1.43898939
C        3.15941872       1.03010962       0.88540963
N        4.13937845      -0.01386999       1.26360945
C        3.17912882      -1.05544961       0.83320967
H        0.59221976      -0.04217998       1.07865960
H        0.53391982      -0.88974966      -0.47296980
H        0.51736979       0.88137964      -0.42823983
H        3.82098838       0.05083998      -1.42436945
H        2.55686909       1.38570940       1.72927935
H        3.59941858       1.89821928       0.38509986
H        4.99699814       0.00804000       0.71252972
H        3.63472855      -1.88899923       0.28992988
H        2.58330887      -1.46403945       1.65778936
