15
Properties=species:S:1:pos:R:3 atomization_energy=-1414.07 smiles=C.C.C.C.N.O.H.H.H.H.H.H.H.H.H pbc="F F F"
C        2.04684921      -0.32714987       1.39138950
C        2.42032912       0.08553996      -0.01989999
C        3.04486891       1.46478938      -0.02226999
C        2.12598925       2.65917907       0.09218997
N        4.34143850       1.55000934      -0.07522997
O        4.76604792       2.88350888      -0.03435999
H        1.61203930      -1.33166950       1.39333951
H        1.31494953       0.36249987       1.82574924
H        2.92595882      -0.33208986       2.04488922
H        1.53514943       0.09362996      -0.66348971
H        3.13125881      -0.63333972      -0.44156983
H        1.08166953       2.34839906       0.00650000
H        2.34114908       3.37391871      -0.70588975
H        2.27321899       3.13705864       1.06416960
H        5.73621770       2.79334890      -0.08260996
