9
Properties=species:S:1:pos:R:3 atomization_energy=-1026.67 smiles=C.C.C.O.C.N.H.H.H pbc="F F F"
C        0.93695964      -0.10838995       0.05016998
C        2.26222920       0.04914998      -0.05686997
C        2.97491890       1.35435951       0.04932998
O        4.19879842       1.36738952      -0.06728997
C        2.26018910       2.59865893       0.28539990
N        1.65488932       3.57419857       0.47483980
H        0.49712980      -1.09851959      -0.04013999
H        0.24871991       0.71344972       0.22699991
H        2.91048889      -0.80400971      -0.23402991
