12
Properties=species:S:1:pos:R:3 atomization_energy=-1230.4 smiles=O.C.O.C.C.C.H.H.H.H.H.H pbc="F F F"
O        2.26432911       3.00105891      -0.70111975
C        2.44719911       2.24999921      -1.64601937
O        3.44434866       1.33729952      -1.77802924
C        4.39474803       1.25847956      -0.69851973
C        5.61098771       0.41881983      -0.97607963
C        5.72449792       1.91522919      -0.94310965
H        1.80752929       2.20949903      -2.54088895
H        4.01440837       1.24741950       0.31962986
H        5.68272801      -0.07614997      -1.93729922
H        6.03670739      -0.14181994      -0.15241994
H        6.22077748       2.37302912      -0.09555996
H        5.87320783       2.43686893      -1.88093926
