11
Properties=species:S:1:pos:R:3 atomization_energy=-1160.27 smiles=C.C.C.O.N.C.H.H.H.H.H pbc="F F F"
C        0.93988965       0.01081000      -0.00721000
C        2.41598902       0.01742999      -0.00130000
C        3.27057872       1.09431953       0.00206000
O        4.55627839       0.66464974       0.00702000
N        4.57614796      -0.72069970       0.00691000
C        3.29383861      -1.08920957       0.00185000
H        0.53659977       1.02830961       0.00316000
H        0.55514977      -0.51483979       0.87264968
H        0.56236979      -0.49415979      -0.90214966
H        3.13852873       2.16572915       0.00166000
H        3.05642871      -2.14436906       0.00075000
