11
Properties=species:S:1:pos:R:3 atomization_energy=-1166.9 smiles=C.C.C.C.N.O.H.H.H.H.H pbc="F F F"
C        0.99999962       0.00000000       0.00000000
C        2.44399905       0.00000000       0.00000000
C        3.63415853       0.00000000       0.00000000
C        5.07622814       0.01443000      -0.00000000
N        5.68488797      -1.20148954       0.00000000
O        5.69481771       1.06810963      -0.00000000
H        0.60592973       1.02084963       0.01167999
H        0.60594973      -0.52055979       0.87823963
H        0.60594973      -0.50031980      -0.88992963
H        5.16094785      -2.06326916       0.00000000
H        6.69490741      -1.22578954       0.00000000
