17
Properties=species:S:1:pos:R:3 atomization_energy=-1566.53 smiles=C.C.C.N.C.O.H.H.H.H.H.H.H.H.H.H.H pbc="F F F"
C        1.28793948      -0.28905990       0.47884982
C        2.52712908       0.21132992      -0.26801989
C        2.59382906      -0.33627988      -1.70570934
N        2.65683895      -1.79696935      -1.73251928
C        2.53379895       1.74510935      -0.28145991
O        3.74310861       2.24134904      -0.84352964
H        1.24900957       0.13110995       1.48965940
H        1.29470954      -1.37898944       0.57947974
H        0.36831986      -0.00096000      -0.04199998
H        3.42165878      -0.13068995       0.26936989
H        3.47697862       0.05619998      -2.22219912
H        1.71378936      -0.01198000      -2.27301914
H        3.50956871      -2.10912923      -1.26980948
H        2.73140889      -2.10866923      -2.70059900
H        2.44371897       2.14981916       0.73263970
H        1.70014934       2.13767925      -0.87364966
H        4.46734827       1.98355923      -0.24729990
