14
Properties=species:S:1:pos:R:3 atomization_energy=-1353.07 smiles=O.C.C.O.C.C.H.H.H.H.H.H.H.H pbc="F F F"
O        2.75831901      -0.74313971       1.18594959
C        2.38410899      -0.06766997      -0.02107999
C        2.95402891       1.36119945      -0.01667999
O        2.59582904       1.99828919       1.20956956
C        4.45298810       1.38422947      -0.11243996
C        5.14584784       1.97400925      -1.09601961
H        2.40456901      -1.64743936       1.11918955
H        1.29013944      -0.03000999      -0.03960998
H        2.74177895      -0.64165978      -0.88143964
H        2.50568899       1.93385919      -0.83643970
H        2.72953887       1.31089948       1.89182925
H        4.99598781       0.88441967       0.68671970
H        4.65256799       2.49686901      -1.90929928
H        6.23134764       1.95710924      -1.09481952
